2019-12-12 12:54:22,964  INFO Config:572 setting context to [file:/C:/Users/koetscha/Desktop/develop/matsim.berlin/matsim-berlin/]
2019-12-12 12:54:23,042  INFO PlansCalcRouteConfigGroup:326 Replacing mode routing params for mode=non_network_walk.
2019-12-12 12:54:23,064  INFO MatsimXmlParser:160 starting to parse xml from url file:/C:/Users/koetscha/Desktop/develop/matsim.berlin/matsim-berlin/scenarios/equil/config.xml ...
2019-12-12 12:54:23,164  INFO ConfigReader:102 using config_v2-reader
2019-12-12 12:54:23,164  INFO MatsimXmlParser:275 Trying to load http://www.matsim.org/files/dtd/config_v2.dtd. In some cases (e.g. network interface up but no connection), this may take a bit.
2019-12-12 12:54:23,411  WARN PlanCalcScoreConfigGroup$ActivityParams:949 Setting minimalDuration different from zero is discouraged.  It is probably implemented correctly, but there is as of now no indication that it makes the results more realistic.  KN, Sep'08 This message given only once.
2019-12-12 12:54:23,424  INFO PlanCalcScoreConfigGroup:543 scoring parameters for subpopulation null were just replaced.
2019-12-12 12:54:23,426  INFO Config:572 setting context to [file:/C:/Users/koetscha/Desktop/develop/matsim.berlin/matsim-berlin/scenarios/equil/config.xml]
2019-12-12 12:54:23,647  INFO CommandLine:505 Received 0 positional command line arguments:
2019-12-12 12:54:23,647  INFO CommandLine:506    
2019-12-12 12:54:23,647  INFO CommandLine:528 Received 0 command line options with 0 prefixes:
2019-12-12 12:54:23,708  INFO ScenarioLoaderImpl:131 loading network from file:/C:/Users/koetscha/Desktop/develop/matsim.berlin/matsim-berlin/scenarios/equil/network.xml
2019-12-12 12:54:23,708  INFO MatsimXmlParser:160 starting to parse xml from url file:/C:/Users/koetscha/Desktop/develop/matsim.berlin/matsim-berlin/scenarios/equil/network.xml ...
2019-12-12 12:54:23,716  INFO MatsimNetworkReader:115 using network_v1-reader.
2019-12-12 12:54:23,716  INFO MatsimXmlParser:275 Trying to load http://www.matsim.org/files/dtd/network_v1.dtd. In some cases (e.g. network interface up but no connection), this may take a bit.
2019-12-12 12:54:23,757  INFO NetworkImpl:167  node # 1
2019-12-12 12:54:23,757  INFO NetworkImpl:167  node # 4
2019-12-12 12:54:23,757  INFO NetworkImpl:163  link # 1
2019-12-12 12:54:23,757  INFO NetworkImpl:163  link # 4
2019-12-12 12:54:23,773  INFO NetworkImpl:163  link # 16
2019-12-12 12:54:23,773  INFO ScenarioLoaderImpl:168 no facilities file set in config, therefore not loading any facilities.  This is not a problem except if you are using facilities
2019-12-12 12:54:23,773  INFO ScenarioLoaderImpl:178 no facility-attributes file set in config, not loading any facility attributes
2019-12-12 12:54:23,773  INFO ScenarioLoaderImpl:185 loading population from file:/C:/Users/koetscha/Desktop/develop/matsim.berlin/matsim-berlin/scenarios/equil/plans100.xml
2019-12-12 12:54:23,773  INFO MatsimXmlParser:160 starting to parse xml from url file:/C:/Users/koetscha/Desktop/develop/matsim.berlin/matsim-berlin/scenarios/equil/plans100.xml ...
2019-12-12 12:54:23,773  INFO PopulationReader:138 using plans_v4-reader.
2019-12-12 12:54:23,773  INFO MatsimXmlParser:275 Trying to load http://www.matsim.org/files/dtd/plans_v4.dtd. In some cases (e.g. network interface up but no connection), this may take a bit.
2019-12-12 12:54:23,842  INFO ParallelPopulationReaderMatsimV4:138 Start parallel population reading...
2019-12-12 12:54:23,842  INFO PopulationImpl:105  person # 1
2019-12-12 12:54:23,857  INFO PopulationImpl:105  person # 4
2019-12-12 12:54:23,857  INFO PopulationImpl:105  person # 16
2019-12-12 12:54:23,873  INFO PopulationImpl:105  person # 64
2019-12-12 12:54:23,888  INFO ParallelPopulationReaderMatsimV4:188 Finished parallel population reading...
2019-12-12 12:54:23,888  INFO PopulationUtils:1010  person # 100
2019-12-12 12:54:23,888  INFO ScenarioLoaderImpl:252 no person-attributes file set in config, not loading any person attributes
2019-12-12 12:54:23,888  INFO ScenarioLoaderImpl:264 no households file set in config, not loading households
2019-12-12 12:54:23,888  INFO ScenarioLoaderImpl:275 no household-attributes file set in config, not loading any household attributes
2019-12-12 12:54:23,888  INFO ScenarioLoaderImpl:289 no transit schedule file set in config, not loading any transit schedule
2019-12-12 12:54:23,888  INFO ScenarioLoaderImpl:316 no transit vehicles file set in config, not loading any transit vehicles
2019-12-12 12:54:23,888  INFO MatsimXmlParser:160 starting to parse xml from url file:/C:/Users/koetscha/Desktop/develop/matsim.berlin/matsim-berlin/scenarios/equil/carrier/singleCarrier.xml ...
2019-12-12 12:54:23,904  INFO MatsimXmlParser:160 starting to parse xml from url file:/C:/Users/koetscha/Desktop/develop/matsim.berlin/matsim-berlin/scenarios/equil/carrier/vehicleTypes.xml ...
2019-12-12 12:54:23,926  INFO VspConfigConsistencyCheckerImpl:72 running checkConsistency ...
2019-12-12 12:54:23,926  INFO VspConfigConsistencyCheckerImpl:83 you are insisting on config v1.  vsp default is using v2.
2019-12-12 12:54:23,926  INFO VspConfigConsistencyCheckerImpl:139 You are using a brainExpBeta != 1; vsp default is 1.  (Different values may cause conceptual problems during paper writing.) This means you have to add the following lines to your config file: 
2019-12-12 12:54:23,926  INFO VspConfigConsistencyCheckerImpl:141 <module name="planCalcScore">
2019-12-12 12:54:23,926  INFO VspConfigConsistencyCheckerImpl:142 	<param name="BrainExpBeta" value="1.0" />
2019-12-12 12:54:23,926  INFO VspConfigConsistencyCheckerImpl:143 </module>
2019-12-12 12:54:23,926  INFO VspConfigConsistencyCheckerImpl:201 You are not setting fractionOfIterationsToStartScoreMSA; vsp default is to set this to something like 0.8.  This means you have to add the following lines to your config file: 
2019-12-12 12:54:23,926  INFO VspConfigConsistencyCheckerImpl:203 <module name="planCalcScore">
2019-12-12 12:54:23,926  INFO VspConfigConsistencyCheckerImpl:204 	<param name="fractionOfIterationsToStartScoreMSA" value="0.8" />
2019-12-12 12:54:23,926  INFO VspConfigConsistencyCheckerImpl:205 </module>
2019-12-12 12:54:23,926  INFO VspConfigConsistencyCheckerImpl:214 You are not removing unnecessary plan attributes; vsp default is to do that.
2019-12-12 12:54:23,926  INFO VspConfigConsistencyCheckerImpl:254 found qsim.usePersonIdForMissingVehicleId==true; this is only for backwards compatibility and should rather be set to false
2019-12-12 12:54:23,926  INFO VspConfigConsistencyCheckerImpl:295 You have no strategy configured that uses ChangeExpBeta. vsp default is to use ChangeExpBeta at least in one strategy.
2019-12-12 12:54:23,926  INFO VspConfigConsistencyCheckerImpl:302 You have not set fractionOfIterationsToDisableInnovation; vsp default is to set this to 0.8 or similar.  Add the following config lines:
2019-12-12 12:54:23,926  INFO VspConfigConsistencyCheckerImpl:303 <module name="strategy">
2019-12-12 12:54:23,926  INFO VspConfigConsistencyCheckerImpl:304 	<param name="fractionOfIterationsToDisableInnovation" value="0.8" />
2019-12-12 12:54:23,926  INFO VspConfigConsistencyCheckerImpl:305 </module>
2019-12-12 12:54:23,973  INFO Version:21 HV000001: Hibernate Validator 6.0.9.Final
2019-12-12 12:54:25,326  INFO SimStepParallelEventsManagerImpl:79 number of threads=1
2019-12-12 12:54:25,336  INFO EventsManagerImpl:144 adding Event-Handler: org.matsim.core.trafficmonitoring.TravelTimeCalculator
2019-12-12 12:54:25,336  INFO EventsManagerImpl:148   org.matsim.api.core.v01.events.handler.LinkEnterEventHandler
2019-12-12 12:54:25,336  INFO EventsManagerImpl:207     > org.matsim.api.core.v01.events.LinkEnterEvent
2019-12-12 12:54:25,336  INFO EventsManagerImpl:148   org.matsim.api.core.v01.events.handler.LinkLeaveEventHandler
2019-12-12 12:54:25,336  INFO EventsManagerImpl:207     > org.matsim.api.core.v01.events.LinkLeaveEvent
2019-12-12 12:54:25,336  INFO EventsManagerImpl:148   org.matsim.api.core.v01.events.handler.VehicleEntersTrafficEventHandler
2019-12-12 12:54:25,336  INFO EventsManagerImpl:207     > org.matsim.api.core.v01.events.VehicleEntersTrafficEvent
2019-12-12 12:54:25,336  INFO EventsManagerImpl:148   org.matsim.api.core.v01.events.handler.VehicleLeavesTrafficEventHandler
2019-12-12 12:54:25,336  INFO EventsManagerImpl:207     > org.matsim.api.core.v01.events.VehicleLeavesTrafficEvent
2019-12-12 12:54:25,336  INFO EventsManagerImpl:148   org.matsim.core.api.experimental.events.handler.VehicleArrivesAtFacilityEventHandler
2019-12-12 12:54:25,336  INFO EventsManagerImpl:207     > org.matsim.core.api.experimental.events.VehicleArrivesAtFacilityEvent
2019-12-12 12:54:25,336  INFO EventsManagerImpl:148   org.matsim.api.core.v01.events.handler.VehicleAbortsEventHandler
2019-12-12 12:54:25,336  INFO EventsManagerImpl:207     > org.matsim.api.core.v01.events.VehicleAbortsEvent
2019-12-12 12:54:25,336  INFO EventsManagerImpl:156 
2019-12-12 12:54:25,336  INFO EventsManagerImpl:144 adding Event-Handler: org.matsim.core.trafficmonitoring.TravelTimeCalculator
2019-12-12 12:54:25,336  INFO EventsManagerImpl:148   org.matsim.api.core.v01.events.handler.LinkEnterEventHandler
2019-12-12 12:54:25,336  INFO EventsManagerImpl:207     > org.matsim.api.core.v01.events.LinkEnterEvent
2019-12-12 12:54:25,336  INFO EventsManagerImpl:148   org.matsim.api.core.v01.events.handler.LinkLeaveEventHandler
2019-12-12 12:54:25,336  INFO EventsManagerImpl:207     > org.matsim.api.core.v01.events.LinkLeaveEvent
2019-12-12 12:54:25,336  INFO EventsManagerImpl:148   org.matsim.api.core.v01.events.handler.VehicleEntersTrafficEventHandler
2019-12-12 12:54:25,336  INFO EventsManagerImpl:207     > org.matsim.api.core.v01.events.VehicleEntersTrafficEvent
2019-12-12 12:54:25,336  INFO EventsManagerImpl:148   org.matsim.api.core.v01.events.handler.VehicleLeavesTrafficEventHandler
2019-12-12 12:54:25,336  INFO EventsManagerImpl:207     > org.matsim.api.core.v01.events.VehicleLeavesTrafficEvent
2019-12-12 12:54:25,336  INFO EventsManagerImpl:148   org.matsim.core.api.experimental.events.handler.VehicleArrivesAtFacilityEventHandler
2019-12-12 12:54:25,336  INFO EventsManagerImpl:207     > org.matsim.core.api.experimental.events.VehicleArrivesAtFacilityEvent
2019-12-12 12:54:25,336  INFO EventsManagerImpl:148   org.matsim.api.core.v01.events.handler.VehicleAbortsEventHandler
2019-12-12 12:54:25,336  INFO EventsManagerImpl:207     > org.matsim.api.core.v01.events.VehicleAbortsEvent
2019-12-12 12:54:25,344  INFO EventsManagerImpl:156 
2019-12-12 12:54:25,356  INFO StrategyManager:62 global innovation switch off after iteration: 0
2019-12-12 12:54:25,356  INFO GenericStrategyManager:332 added change request:  iteration=1 newWeight=0.0 strategy=RandomPlanSelector_ReRoute
2019-12-12 12:54:25,356  INFO GenericStrategyManager:364 setting PlanSelectorForRemoval to class org.matsim.core.replanning.selectors.WorstPlanForRemovalSelector
2019-12-12 12:54:25,356  INFO EventsManagerImpl:144 adding Event-Handler: org.matsim.core.scoring.ScoringFunctionsForPopulation
2019-12-12 12:54:25,364  INFO EventsManagerImpl:148   org.matsim.core.events.handler.BasicEventHandler
2019-12-12 12:54:25,364  INFO EventsManagerImpl:207     > org.matsim.api.core.v01.events.Event
2019-12-12 12:54:25,364  INFO EventsManagerImpl:148   org.matsim.core.scoring.EventsToLegs$LegHandler
2019-12-12 12:54:25,364  INFO EventsManagerImpl:148   org.matsim.core.scoring.EventsToActivities$ActivityHandler
2019-12-12 12:54:25,364  INFO EventsManagerImpl:156 
2019-12-12 12:54:25,364  INFO EventsManagerImpl:144 adding Event-Handler: org.matsim.core.scoring.ScoringFunctionsForPopulation
2019-12-12 12:54:25,364  INFO EventsManagerImpl:148   org.matsim.core.events.handler.BasicEventHandler
2019-12-12 12:54:25,364  INFO EventsManagerImpl:207     > org.matsim.api.core.v01.events.Event
2019-12-12 12:54:25,364  INFO EventsManagerImpl:148   org.matsim.core.scoring.EventsToLegs$LegHandler
2019-12-12 12:54:25,366  INFO EventsManagerImpl:148   org.matsim.core.scoring.EventsToActivities$ActivityHandler
2019-12-12 12:54:25,366  INFO EventsManagerImpl:156 
2019-12-12 12:54:25,366  INFO EventsManagerImpl:144 adding Event-Handler: org.matsim.core.events.algorithms.Vehicle2DriverEventHandler
2019-12-12 12:54:25,366  INFO EventsManagerImpl:148   org.matsim.api.core.v01.events.handler.VehicleEntersTrafficEventHandler
2019-12-12 12:54:25,366  INFO EventsManagerImpl:207     > org.matsim.api.core.v01.events.VehicleEntersTrafficEvent
2019-12-12 12:54:25,366  INFO EventsManagerImpl:148   org.matsim.api.core.v01.events.handler.VehicleLeavesTrafficEventHandler
2019-12-12 12:54:25,366  INFO EventsManagerImpl:207     > org.matsim.api.core.v01.events.VehicleLeavesTrafficEvent
2019-12-12 12:54:25,366  INFO EventsManagerImpl:156 
2019-12-12 12:54:25,366  INFO EventsManagerImpl:144 adding Event-Handler: org.matsim.core.events.algorithms.Vehicle2DriverEventHandler
2019-12-12 12:54:25,366  INFO EventsManagerImpl:148   org.matsim.api.core.v01.events.handler.VehicleEntersTrafficEventHandler
2019-12-12 12:54:25,366  INFO EventsManagerImpl:207     > org.matsim.api.core.v01.events.VehicleEntersTrafficEvent
2019-12-12 12:54:25,366  INFO EventsManagerImpl:148   org.matsim.api.core.v01.events.handler.VehicleLeavesTrafficEventHandler
2019-12-12 12:54:25,366  INFO EventsManagerImpl:207     > org.matsim.api.core.v01.events.VehicleLeavesTrafficEvent
2019-12-12 12:54:25,366  INFO EventsManagerImpl:156 
2019-12-12 12:54:25,366  INFO NetworkImpl:167  node # 1
2019-12-12 12:54:25,366  INFO NetworkImpl:167  node # 4
2019-12-12 12:54:25,366  INFO NetworkImpl:163  link # 1
2019-12-12 12:54:25,366  INFO NetworkImpl:163  link # 4
2019-12-12 12:54:25,374  INFO NetworkImpl:163  link # 16
2019-12-12 12:54:25,377  INFO PreProcessDijkstra:118 nodes in dead ends: 0 (total nodes: 15). Done in 0 ms
2019-12-12 12:54:25,377  WARN PreProcessEuclidean:59 There are links with stored length smaller than their Euclidean distance in this network. Thus, A* cannot guarantee to calculate the least-cost paths between two nodes.
2019-12-12 12:54:25,377  INFO PreProcessLandmarks:112 Putting landmarks on network...
2019-12-12 12:54:25,385  INFO LandmarkerPieSlices:96 Filling sectors...
2019-12-12 12:54:25,386  INFO LandmarkerPieSlices:163 There is no node in sector 0!
2019-12-12 12:54:25,386  INFO LandmarkerPieSlices:163 There is no node in sector 1!
2019-12-12 12:54:25,386  INFO LandmarkerPieSlices:163 There is no node in sector 2!
2019-12-12 12:54:25,386  INFO LandmarkerPieSlices:163 There is no node in sector 3!
2019-12-12 12:54:25,386  INFO LandmarkerPieSlices:163 There is no node in sector 4!
2019-12-12 12:54:25,386  INFO LandmarkerPieSlices:163 There is no node in sector 5!
2019-12-12 12:54:25,386  INFO LandmarkerPieSlices:163 There is no node in sector 6!
2019-12-12 12:54:25,386  INFO LandmarkerPieSlices:163 There is no node in sector 7!
2019-12-12 12:54:25,386  INFO LandmarkerPieSlices:163 There is no node in sector 8!
2019-12-12 12:54:25,386  INFO LandmarkerPieSlices:163 There is no node in sector 9!
2019-12-12 12:54:25,386  INFO LandmarkerPieSlices:163 There is no node in sector 10!
2019-12-12 12:54:25,386  INFO LandmarkerPieSlices:163 There is no node in sector 11!
2019-12-12 12:54:25,386  INFO LandmarkerPieSlices:163 There is no node in sector 12!
2019-12-12 12:54:25,386  INFO LandmarkerPieSlices:163 There is no node in sector 13!
2019-12-12 12:54:25,386  INFO LandmarkerPieSlices:163 There is no node in sector 14!
2019-12-12 12:54:25,386  INFO LandmarkerPieSlices:100 Reducing number of landmarks from 16 to 1...
2019-12-12 12:54:25,386  INFO LandmarkerPieSlices:107 Refining landmarks...
2019-12-12 12:54:25,386  INFO LandmarkerPieSlices:109 done
2019-12-12 12:54:25,386  INFO PreProcessLandmarks:115 done in 2 ms
2019-12-12 12:54:25,386  INFO PreProcessLandmarks:117 Initializing landmarks data
2019-12-12 12:54:25,386  INFO PreProcessLandmarks:129 Calculating distance from each node to each of the 16 landmarks using 2 threads...
2019-12-12 12:54:25,395  INFO PreProcessLandmarks:139 wait for landmarks Calculator to finish...
2019-12-12 12:54:25,395  INFO PreProcessLandmarks:161 done in 9 ms
2019-12-12 12:54:25,407  INFO CalcLinkStats:151  resetting `count' to zero.  This info is here since we want to check when this is happening during normal simulation runs.  kai, jan'11
2019-12-12 12:54:25,407  INFO EventsManagerImpl:144 adding Event-Handler: org.matsim.analysis.VolumesAnalyzer
2019-12-12 12:54:25,407  INFO EventsManagerImpl:148   org.matsim.api.core.v01.events.handler.LinkLeaveEventHandler
2019-12-12 12:54:25,407  INFO EventsManagerImpl:207     > org.matsim.api.core.v01.events.LinkLeaveEvent
2019-12-12 12:54:25,407  INFO EventsManagerImpl:148   org.matsim.api.core.v01.events.handler.VehicleEntersTrafficEventHandler
2019-12-12 12:54:25,407  INFO EventsManagerImpl:207     > org.matsim.api.core.v01.events.VehicleEntersTrafficEvent
2019-12-12 12:54:25,407  INFO EventsManagerImpl:156 
2019-12-12 12:54:25,407  INFO EventsManagerImpl:144 adding Event-Handler: org.matsim.analysis.VolumesAnalyzer
2019-12-12 12:54:25,407  INFO EventsManagerImpl:148   org.matsim.api.core.v01.events.handler.LinkLeaveEventHandler
2019-12-12 12:54:25,407  INFO EventsManagerImpl:207     > org.matsim.api.core.v01.events.LinkLeaveEvent
2019-12-12 12:54:25,407  INFO EventsManagerImpl:148   org.matsim.api.core.v01.events.handler.VehicleEntersTrafficEventHandler
2019-12-12 12:54:25,407  INFO EventsManagerImpl:207     > org.matsim.api.core.v01.events.VehicleEntersTrafficEvent
2019-12-12 12:54:25,407  INFO EventsManagerImpl:156 
2019-12-12 12:54:25,407  INFO EventsManagerImpl:144 adding Event-Handler: org.matsim.analysis.LegHistogram
2019-12-12 12:54:25,407  INFO EventsManagerImpl:148   org.matsim.api.core.v01.events.handler.PersonDepartureEventHandler
2019-12-12 12:54:25,407  INFO EventsManagerImpl:207     > org.matsim.api.core.v01.events.PersonDepartureEvent
2019-12-12 12:54:25,407  INFO EventsManagerImpl:148   org.matsim.api.core.v01.events.handler.PersonArrivalEventHandler
2019-12-12 12:54:25,407  INFO EventsManagerImpl:207     > org.matsim.api.core.v01.events.PersonArrivalEvent
2019-12-12 12:54:25,407  INFO EventsManagerImpl:148   org.matsim.api.core.v01.events.handler.PersonStuckEventHandler
2019-12-12 12:54:25,407  INFO EventsManagerImpl:207     > org.matsim.api.core.v01.events.PersonStuckEvent
2019-12-12 12:54:25,407  INFO EventsManagerImpl:156 
2019-12-12 12:54:25,407  INFO EventsManagerImpl:144 adding Event-Handler: org.matsim.analysis.LegHistogram
2019-12-12 12:54:25,407  INFO EventsManagerImpl:148   org.matsim.api.core.v01.events.handler.PersonDepartureEventHandler
2019-12-12 12:54:25,407  INFO EventsManagerImpl:207     > org.matsim.api.core.v01.events.PersonDepartureEvent
2019-12-12 12:54:25,407  INFO EventsManagerImpl:148   org.matsim.api.core.v01.events.handler.PersonArrivalEventHandler
2019-12-12 12:54:25,407  INFO EventsManagerImpl:207     > org.matsim.api.core.v01.events.PersonArrivalEvent
2019-12-12 12:54:25,407  INFO EventsManagerImpl:148   org.matsim.api.core.v01.events.handler.PersonStuckEventHandler
2019-12-12 12:54:25,407  INFO EventsManagerImpl:207     > org.matsim.api.core.v01.events.PersonStuckEvent
2019-12-12 12:54:25,407  INFO EventsManagerImpl:156 
2019-12-12 12:54:25,407  INFO EventsManagerImpl:144 adding Event-Handler: org.matsim.analysis.CalcLegTimes
2019-12-12 12:54:25,415  INFO EventsManagerImpl:148   org.matsim.api.core.v01.events.handler.PersonDepartureEventHandler
2019-12-12 12:54:25,415  INFO EventsManagerImpl:207     > org.matsim.api.core.v01.events.PersonDepartureEvent
2019-12-12 12:54:25,415  INFO EventsManagerImpl:148   org.matsim.api.core.v01.events.handler.PersonArrivalEventHandler
2019-12-12 12:54:25,415  INFO EventsManagerImpl:207     > org.matsim.api.core.v01.events.PersonArrivalEvent
2019-12-12 12:54:25,415  INFO EventsManagerImpl:148   org.matsim.api.core.v01.events.handler.ActivityEndEventHandler
2019-12-12 12:54:25,415  INFO EventsManagerImpl:207     > org.matsim.api.core.v01.events.ActivityEndEvent
2019-12-12 12:54:25,415  INFO EventsManagerImpl:148   org.matsim.api.core.v01.events.handler.ActivityStartEventHandler
2019-12-12 12:54:25,415  INFO EventsManagerImpl:207     > org.matsim.api.core.v01.events.ActivityStartEvent
2019-12-12 12:54:25,415  INFO EventsManagerImpl:156 
2019-12-12 12:54:25,415  INFO EventsManagerImpl:144 adding Event-Handler: org.matsim.analysis.CalcLegTimes
2019-12-12 12:54:25,415  INFO EventsManagerImpl:148   org.matsim.api.core.v01.events.handler.PersonDepartureEventHandler
2019-12-12 12:54:25,417  INFO EventsManagerImpl:207     > org.matsim.api.core.v01.events.PersonDepartureEvent
2019-12-12 12:54:25,417  INFO EventsManagerImpl:148   org.matsim.api.core.v01.events.handler.PersonArrivalEventHandler
2019-12-12 12:54:25,417  INFO EventsManagerImpl:207     > org.matsim.api.core.v01.events.PersonArrivalEvent
2019-12-12 12:54:25,417  INFO EventsManagerImpl:148   org.matsim.api.core.v01.events.handler.ActivityEndEventHandler
2019-12-12 12:54:25,417  INFO EventsManagerImpl:207     > org.matsim.api.core.v01.events.ActivityEndEvent
2019-12-12 12:54:25,417  INFO EventsManagerImpl:148   org.matsim.api.core.v01.events.handler.ActivityStartEventHandler
2019-12-12 12:54:25,417  INFO EventsManagerImpl:207     > org.matsim.api.core.v01.events.ActivityStartEvent
2019-12-12 12:54:25,417  INFO EventsManagerImpl:156 
2019-12-12 12:54:25,417  INFO AbstractController:52 Used Controler-Class: org.matsim.core.controler.NewControler
2019-12-12 12:54:25,417  INFO Config:532 ConfigConsistencyChecker with runtime type=class org.matsim.core.config.consistency.ConfigConsistencyCheckerImpl was already added; not adding it a second time
2019-12-12 12:54:25,417  INFO EventsManagerImpl:144 adding Event-Handler: org.matsim.core.scoring.EventsToLegsAndActivities
2019-12-12 12:54:25,417  INFO EventsManagerImpl:148   org.matsim.api.core.v01.events.handler.ActivityStartEventHandler
2019-12-12 12:54:25,417  INFO EventsManagerImpl:207     > org.matsim.api.core.v01.events.ActivityStartEvent
2019-12-12 12:54:25,417  INFO EventsManagerImpl:148   org.matsim.api.core.v01.events.handler.ActivityEndEventHandler
2019-12-12 12:54:25,417  INFO EventsManagerImpl:207     > org.matsim.api.core.v01.events.ActivityEndEvent
2019-12-12 12:54:25,417  INFO EventsManagerImpl:148   org.matsim.api.core.v01.events.handler.PersonDepartureEventHandler
2019-12-12 12:54:25,417  INFO EventsManagerImpl:207     > org.matsim.api.core.v01.events.PersonDepartureEvent
2019-12-12 12:54:25,417  INFO EventsManagerImpl:148   org.matsim.api.core.v01.events.handler.PersonArrivalEventHandler
2019-12-12 12:54:25,417  INFO EventsManagerImpl:207     > org.matsim.api.core.v01.events.PersonArrivalEvent
2019-12-12 12:54:25,417  INFO EventsManagerImpl:148   org.matsim.api.core.v01.events.handler.LinkLeaveEventHandler
2019-12-12 12:54:25,417  INFO EventsManagerImpl:207     > org.matsim.api.core.v01.events.LinkLeaveEvent
2019-12-12 12:54:25,417  INFO EventsManagerImpl:148   org.matsim.api.core.v01.events.handler.LinkEnterEventHandler
2019-12-12 12:54:25,425  INFO EventsManagerImpl:207     > org.matsim.api.core.v01.events.LinkEnterEvent
2019-12-12 12:54:25,425  INFO EventsManagerImpl:148   org.matsim.core.api.experimental.events.handler.TeleportationArrivalEventHandler
2019-12-12 12:54:25,425  INFO EventsManagerImpl:207     > org.matsim.core.api.experimental.events.TeleportationArrivalEvent
2019-12-12 12:54:25,425  INFO EventsManagerImpl:148   org.matsim.api.core.v01.events.handler.TransitDriverStartsEventHandler
2019-12-12 12:54:25,425  INFO EventsManagerImpl:207     > org.matsim.api.core.v01.events.TransitDriverStartsEvent
2019-12-12 12:54:25,425  INFO EventsManagerImpl:148   org.matsim.api.core.v01.events.handler.PersonEntersVehicleEventHandler
2019-12-12 12:54:25,425  INFO EventsManagerImpl:207     > org.matsim.api.core.v01.events.PersonEntersVehicleEvent
2019-12-12 12:54:25,425  INFO EventsManagerImpl:148   org.matsim.core.api.experimental.events.handler.VehicleArrivesAtFacilityEventHandler
2019-12-12 12:54:25,425  INFO EventsManagerImpl:207     > org.matsim.core.api.experimental.events.VehicleArrivesAtFacilityEvent
2019-12-12 12:54:25,425  INFO EventsManagerImpl:148   org.matsim.api.core.v01.events.handler.VehicleEntersTrafficEventHandler
2019-12-12 12:54:25,425  INFO EventsManagerImpl:207     > org.matsim.api.core.v01.events.VehicleEntersTrafficEvent
2019-12-12 12:54:25,425  INFO EventsManagerImpl:148   org.matsim.api.core.v01.events.handler.VehicleLeavesTrafficEventHandler
2019-12-12 12:54:25,425  INFO EventsManagerImpl:207     > org.matsim.api.core.v01.events.VehicleLeavesTrafficEvent
2019-12-12 12:54:25,425  INFO EventsManagerImpl:156 
2019-12-12 12:54:25,427  INFO EventsManagerImpl:144 adding Event-Handler: org.matsim.core.scoring.EventsToLegsAndActivities
2019-12-12 12:54:25,427  INFO EventsManagerImpl:148   org.matsim.api.core.v01.events.handler.ActivityStartEventHandler
2019-12-12 12:54:25,427  INFO EventsManagerImpl:207     > org.matsim.api.core.v01.events.ActivityStartEvent
2019-12-12 12:54:25,427  INFO EventsManagerImpl:148   org.matsim.api.core.v01.events.handler.ActivityEndEventHandler
2019-12-12 12:54:25,427  INFO EventsManagerImpl:207     > org.matsim.api.core.v01.events.ActivityEndEvent
2019-12-12 12:54:25,427  INFO EventsManagerImpl:148   org.matsim.api.core.v01.events.handler.PersonDepartureEventHandler
2019-12-12 12:54:25,427  INFO EventsManagerImpl:207     > org.matsim.api.core.v01.events.PersonDepartureEvent
2019-12-12 12:54:25,427  INFO EventsManagerImpl:148   org.matsim.api.core.v01.events.handler.PersonArrivalEventHandler
2019-12-12 12:54:25,427  INFO EventsManagerImpl:207     > org.matsim.api.core.v01.events.PersonArrivalEvent
2019-12-12 12:54:25,427  INFO EventsManagerImpl:148   org.matsim.api.core.v01.events.handler.LinkLeaveEventHandler
2019-12-12 12:54:25,427  INFO EventsManagerImpl:207     > org.matsim.api.core.v01.events.LinkLeaveEvent
2019-12-12 12:54:25,427  INFO EventsManagerImpl:148   org.matsim.api.core.v01.events.handler.LinkEnterEventHandler
2019-12-12 12:54:25,427  INFO EventsManagerImpl:207     > org.matsim.api.core.v01.events.LinkEnterEvent
2019-12-12 12:54:25,427  INFO EventsManagerImpl:148   org.matsim.core.api.experimental.events.handler.TeleportationArrivalEventHandler
2019-12-12 12:54:25,427  INFO EventsManagerImpl:207     > org.matsim.core.api.experimental.events.TeleportationArrivalEvent
2019-12-12 12:54:25,427  INFO EventsManagerImpl:148   org.matsim.api.core.v01.events.handler.TransitDriverStartsEventHandler
2019-12-12 12:54:25,427  INFO EventsManagerImpl:207     > org.matsim.api.core.v01.events.TransitDriverStartsEvent
2019-12-12 12:54:25,427  INFO EventsManagerImpl:148   org.matsim.api.core.v01.events.handler.PersonEntersVehicleEventHandler
2019-12-12 12:54:25,427  INFO EventsManagerImpl:207     > org.matsim.api.core.v01.events.PersonEntersVehicleEvent
2019-12-12 12:54:25,427  INFO EventsManagerImpl:148   org.matsim.core.api.experimental.events.handler.VehicleArrivesAtFacilityEventHandler
2019-12-12 12:54:25,427  INFO EventsManagerImpl:207     > org.matsim.core.api.experimental.events.VehicleArrivesAtFacilityEvent
2019-12-12 12:54:25,427  INFO EventsManagerImpl:148   org.matsim.api.core.v01.events.handler.VehicleEntersTrafficEventHandler
2019-12-12 12:54:25,427  INFO EventsManagerImpl:207     > org.matsim.api.core.v01.events.VehicleEntersTrafficEvent
2019-12-12 12:54:25,427  INFO EventsManagerImpl:148   org.matsim.api.core.v01.events.handler.VehicleLeavesTrafficEventHandler
2019-12-12 12:54:25,427  INFO EventsManagerImpl:207     > org.matsim.api.core.v01.events.VehicleLeavesTrafficEvent
2019-12-12 12:54:25,427  INFO EventsManagerImpl:156 
2019-12-12 12:54:25,427  INFO Injector:81 === printInjector start ===
2019-12-12 12:54:25,427  INFO Injector:85 org.matsim.contrib.freight.replanning.CarrierPlanStrategyManagerFactory 
2019-12-12 12:54:25,427  INFO Injector:86   --> provider: of(org.matsim.contrib.freight.Freight$1$$Lambda$55/1454870101@6a84bc2a)
2019-12-12 12:54:25,427  INFO Injector:87   --> source: org.matsim.contrib.freight.Freight$1.install(Freight.java:33)
2019-12-12 12:54:25,427  INFO Injector:89   --> scope: eager singleton
2019-12-12 12:54:25,427  INFO Injector:94   ==full==> InstanceBinding{key=Key[type=org.matsim.contrib.freight.replanning.CarrierPlanStrategyManagerFactory, annotation=[none]], source=org.matsim.contrib.freight.Freight$1.install(Freight.java:33), instance=org.matsim.contrib.freight.Freight$1$$Lambda$55/1454870101@6a84bc2a}
2019-12-12 12:54:25,427  INFO Injector:96 
2019-12-12 12:54:25,427  INFO Injector:85 org.matsim.contrib.freight.scoring.CarrierScoringFunctionFactory 
2019-12-12 12:54:25,427  INFO Injector:86   --> provider: FactoryProxy{key=Key[type=org.matsim.contrib.freight.scoring.CarrierScoringFunctionFactory, annotation=[none]], provider=com.google.inject.internal.ConstructorBindingImpl$Factory@1b9c1b51}
2019-12-12 12:54:25,427  INFO Injector:87   --> source: org.matsim.contrib.freight.Freight$1.install(Freight.java:34)
2019-12-12 12:54:25,427  INFO Injector:89   --> scope: Scopes.NO_SCOPE
2019-12-12 12:54:25,427  INFO Injector:92   --> target: Key[type=org.matsim.contrib.freight.usecases.chessboard.CarrierScoringFunctionFactoryImpl, annotation=[none]]
2019-12-12 12:54:25,427  INFO Injector:94   ==full==> LinkedKeyBinding{key=Key[type=org.matsim.contrib.freight.scoring.CarrierScoringFunctionFactory, annotation=[none]], source=org.matsim.contrib.freight.Freight$1.install(Freight.java:34), scope=Scopes.NO_SCOPE, target=Key[type=org.matsim.contrib.freight.usecases.chessboard.CarrierScoringFunctionFactoryImpl, annotation=[none]]}
2019-12-12 12:54:25,427  INFO Injector:96 
2019-12-12 12:54:25,427  INFO Injector:85 org.matsim.contrib.freight.CarrierConfigGroup 
2019-12-12 12:54:25,427  INFO Injector:86   --> provider: of([name=carrier][nOfParams=0])
2019-12-12 12:54:25,427  INFO Injector:87   --> source: org.matsim.contrib.freight.controler.CarrierModule.install(CarrierModule.java:71)
2019-12-12 12:54:25,427  INFO Injector:89   --> scope: eager singleton
2019-12-12 12:54:25,427  INFO Injector:94   ==full==> InstanceBinding{key=Key[type=org.matsim.contrib.freight.CarrierConfigGroup, annotation=[none]], source=org.matsim.contrib.freight.controler.CarrierModule.install(CarrierModule.java:71), instance=[name=carrier][nOfParams=0]}
2019-12-12 12:54:25,427  INFO Injector:96 
2019-12-12 12:54:25,427  INFO Injector:85 org.matsim.contrib.freight.carrier.Carriers 
2019-12-12 12:54:25,427  INFO Injector:86   --> provider: of(org.matsim.contrib.freight.carrier.Carriers@6e6fce47)
2019-12-12 12:54:25,427  INFO Injector:87   --> source: org.matsim.contrib.freight.controler.CarrierModule.install(CarrierModule.java:72)
2019-12-12 12:54:25,427  INFO Injector:89   --> scope: eager singleton
2019-12-12 12:54:25,427  INFO Injector:94   ==full==> InstanceBinding{key=Key[type=org.matsim.contrib.freight.carrier.Carriers, annotation=[none]], source=org.matsim.contrib.freight.controler.CarrierModule.install(CarrierModule.java:72), instance=org.matsim.contrib.freight.carrier.Carriers@6e6fce47}
2019-12-12 12:54:25,427  INFO Injector:96 
2019-12-12 12:54:25,427  INFO Injector:85 org.matsim.core.controler.listener.ControlerListener @com.google.inject.multibindings.Element(setName=,uniqueId=92, type=MULTIBINDER, keyType=)
2019-12-12 12:54:25,427  INFO Injector:86   --> provider: FactoryProxy{key=Key[type=org.matsim.core.controler.listener.ControlerListener, annotation=@com.google.inject.multibindings.Element(setName=,uniqueId=92, type=MULTIBINDER, keyType=)], provider=com.google.inject.internal.ConstructorBindingImpl$Factory@72805168[Scopes.SINGLETON]}
2019-12-12 12:54:25,427  INFO Injector:87   --> source: org.matsim.contrib.freight.controler.CarrierModule.install(CarrierModule.java:82)
2019-12-12 12:54:25,427  INFO Injector:89   --> scope: Scopes.NO_SCOPE
2019-12-12 12:54:25,427  INFO Injector:92   --> target: Key[type=org.matsim.contrib.freight.controler.CarrierControlerListener, annotation=[none]]
2019-12-12 12:54:25,427  INFO Injector:94   ==full==> LinkedKeyBinding{key=Key[type=org.matsim.core.controler.listener.ControlerListener, annotation=@com.google.inject.multibindings.Element(setName=,uniqueId=92, type=MULTIBINDER, keyType=)], source=org.matsim.contrib.freight.controler.CarrierModule.install(CarrierModule.java:82), scope=Scopes.NO_SCOPE, target=Key[type=org.matsim.contrib.freight.controler.CarrierControlerListener, annotation=[none]]}
2019-12-12 12:54:25,427  INFO Injector:96 
2019-12-12 12:54:25,435  INFO Injector:85 org.matsim.core.mobsim.framework.Mobsim 
2019-12-12 12:54:25,435  INFO Injector:86   --> provider: Key[type=org.matsim.contrib.freight.mobsim.FreightQSimFactory, annotation=[none]]
2019-12-12 12:54:25,435  INFO Injector:87   --> source: org.matsim.contrib.freight.controler.CarrierModule.install(CarrierModule.java:85)
2019-12-12 12:54:25,435  INFO Injector:89   --> scope: Scopes.NO_SCOPE
2019-12-12 12:54:25,435  INFO Injector:94   ==full==> ProviderKeyBinding{key=Key[type=org.matsim.core.mobsim.framework.Mobsim, annotation=[none]], source=org.matsim.contrib.freight.controler.CarrierModule.install(CarrierModule.java:85), scope=Scopes.NO_SCOPE, provider=Key[type=org.matsim.contrib.freight.mobsim.FreightQSimFactory, annotation=[none]]}
2019-12-12 12:54:25,435  INFO Injector:96 
2019-12-12 12:54:25,435  INFO Injector:85 org.matsim.core.controler.listener.ControlerListener @com.google.inject.multibindings.Element(setName=,uniqueId=93, type=MULTIBINDER, keyType=)
2019-12-12 12:54:25,435  INFO Injector:86   --> provider: of(org.matsim.contrib.freight.controler.CarrierModule$1@4c432866)
2019-12-12 12:54:25,435  INFO Injector:87   --> source: org.matsim.contrib.freight.controler.CarrierModule.install(CarrierModule.java:87)
2019-12-12 12:54:25,435  INFO Injector:89   --> scope: eager singleton
2019-12-12 12:54:25,435  INFO Injector:94   ==full==> InstanceBinding{key=Key[type=org.matsim.core.controler.listener.ControlerListener, annotation=@com.google.inject.multibindings.Element(setName=,uniqueId=93, type=MULTIBINDER, keyType=)], source=org.matsim.contrib.freight.controler.CarrierModule.install(CarrierModule.java:87), instance=org.matsim.contrib.freight.controler.CarrierModule$1@4c432866}
2019-12-12 12:54:25,435  INFO Injector:96 
2019-12-12 12:54:25,435  INFO Injector:85 org.matsim.contrib.freight.mobsim.CarrierAgentTracker 
2019-12-12 12:54:25,437  INFO Injector:86   --> provider: @Provides org.matsim.contrib.freight.controler.CarrierModule.provideCarrierAgentTracker(CarrierModule.java:100)
2019-12-12 12:54:25,437  INFO Injector:87   --> source: org.matsim.contrib.freight.mobsim.CarrierAgentTracker org.matsim.contrib.freight.controler.CarrierModule.provideCarrierAgentTracker(org.matsim.contrib.freight.controler.CarrierControlerListener)
2019-12-12 12:54:25,437  INFO Injector:89   --> scope: Scopes.NO_SCOPE
2019-12-12 12:54:25,437  INFO Injector:94   ==full==> ProviderInstanceBinding{key=Key[type=org.matsim.contrib.freight.mobsim.CarrierAgentTracker, annotation=[none]], source=org.matsim.contrib.freight.mobsim.CarrierAgentTracker org.matsim.contrib.freight.controler.CarrierModule.provideCarrierAgentTracker(org.matsim.contrib.freight.controler.CarrierControlerListener), scope=Scopes.NO_SCOPE, provider=@Provides org.matsim.contrib.freight.controler.CarrierModule.provideCarrierAgentTracker(CarrierModule.java:100)}
2019-12-12 12:54:25,437  INFO Injector:96 
2019-12-12 12:54:25,437  INFO Injector:85 org.matsim.core.router.util.TravelTime @com.google.inject.name.Named(value=ride)
2019-12-12 12:54:25,437  INFO Injector:86   --> provider: FactoryProxy{key=Key[type=org.matsim.core.router.util.TravelTime, annotation=@com.google.inject.name.Named(value=ride)], provider=org.matsim.core.trafficmonitoring.TravelTimeCalculatorModule$1@64d7b720}
2019-12-12 12:54:25,437  INFO Injector:87   --> source: org.matsim.run.RunBerlinScenarioFreightTests$3.install(RunBerlinScenarioFreightTests.java:182)
2019-12-12 12:54:25,437  INFO Injector:89   --> scope: Scopes.NO_SCOPE
2019-12-12 12:54:25,437  INFO Injector:92   --> target: Key[type=org.matsim.core.router.util.TravelTime, annotation=@com.google.inject.name.Named(value=car)]
2019-12-12 12:54:25,437  INFO Injector:94   ==full==> LinkedKeyBinding{key=Key[type=org.matsim.core.router.util.TravelTime, annotation=@com.google.inject.name.Named(value=ride)], source=org.matsim.run.RunBerlinScenarioFreightTests$3.install(RunBerlinScenarioFreightTests.java:182), scope=Scopes.NO_SCOPE, target=Key[type=org.matsim.core.router.util.TravelTime, annotation=@com.google.inject.name.Named(value=car)]}
2019-12-12 12:54:25,437  INFO Injector:96 
2019-12-12 12:54:25,437  INFO Injector:85 org.matsim.core.router.costcalculators.TravelDisutilityFactory @com.google.inject.name.Named(value=ride)
2019-12-12 12:54:25,437  INFO Injector:86   --> provider: FactoryProxy{key=Key[type=org.matsim.core.router.costcalculators.TravelDisutilityFactory, annotation=@com.google.inject.name.Named(value=ride)], provider=ConstantFactory{value=org.matsim.core.router.costcalculators.RandomizingTimeDistanceTravelDisutilityFactory@67a056f1}[Scopes.SINGLETON]}
2019-12-12 12:54:25,437  INFO Injector:87   --> source: org.matsim.run.RunBerlinScenarioFreightTests$3.install(RunBerlinScenarioFreightTests.java:183)
2019-12-12 12:54:25,437  INFO Injector:89   --> scope: Scopes.NO_SCOPE
2019-12-12 12:54:25,437  INFO Injector:92   --> target: Key[type=org.matsim.core.router.costcalculators.TravelDisutilityFactory, annotation=@com.google.inject.name.Named(value=car)]
2019-12-12 12:54:25,437  INFO Injector:94   ==full==> LinkedKeyBinding{key=Key[type=org.matsim.core.router.costcalculators.TravelDisutilityFactory, annotation=@com.google.inject.name.Named(value=ride)], source=org.matsim.run.RunBerlinScenarioFreightTests$3.install(RunBerlinScenarioFreightTests.java:183), scope=Scopes.NO_SCOPE, target=Key[type=org.matsim.core.router.costcalculators.TravelDisutilityFactory, annotation=@com.google.inject.name.Named(value=car)]}
2019-12-12 12:54:25,437  INFO Injector:96 
2019-12-12 12:54:25,437  INFO Injector:85 org.matsim.api.core.v01.Scenario 
2019-12-12 12:54:25,437  INFO Injector:86   --> provider: of(org.matsim.core.scenario.MutableScenario@2f879bab)
2019-12-12 12:54:25,437  INFO Injector:87   --> source: org.matsim.core.scenario.ScenarioByInstanceModule.install(ScenarioByInstanceModule.java:52)
2019-12-12 12:54:25,437  INFO Injector:89   --> scope: eager singleton
2019-12-12 12:54:25,437  INFO Injector:94   ==full==> InstanceBinding{key=Key[type=org.matsim.api.core.v01.Scenario, annotation=[none]], source=org.matsim.core.scenario.ScenarioByInstanceModule.install(ScenarioByInstanceModule.java:52), instance=org.matsim.core.scenario.MutableScenario@2f879bab}
2019-12-12 12:54:25,437  INFO Injector:96 
2019-12-12 12:54:25,437  INFO Injector:85 org.matsim.api.core.v01.population.Population 
2019-12-12 12:54:25,437  INFO Injector:86   --> provider: @Provides org.matsim.core.scenario.ScenarioByInstanceModule.providePopulation(ScenarioByInstanceModule.java:64)
2019-12-12 12:54:25,437  INFO Injector:87   --> source: org.matsim.api.core.v01.population.Population org.matsim.core.scenario.ScenarioByInstanceModule.providePopulation(org.matsim.api.core.v01.Scenario)
2019-12-12 12:54:25,437  INFO Injector:89   --> scope: Scopes.NO_SCOPE
2019-12-12 12:54:25,437  INFO Injector:94   ==full==> ProviderInstanceBinding{key=Key[type=org.matsim.api.core.v01.population.Population, annotation=[none]], source=org.matsim.api.core.v01.population.Population org.matsim.core.scenario.ScenarioByInstanceModule.providePopulation(org.matsim.api.core.v01.Scenario), scope=Scopes.NO_SCOPE, provider=@Provides org.matsim.core.scenario.ScenarioByInstanceModule.providePopulation(ScenarioByInstanceModule.java:64)}
2019-12-12 12:54:25,437  INFO Injector:96 
2019-12-12 12:54:25,437  INFO Injector:85 org.matsim.api.core.v01.population.PopulationFactory 
2019-12-12 12:54:25,437  INFO Injector:86   --> provider: @Provides org.matsim.core.scenario.ScenarioByInstanceModule.providePopulationFactory(ScenarioByInstanceModule.java:68)
2019-12-12 12:54:25,437  INFO Injector:87   --> source: org.matsim.api.core.v01.population.PopulationFactory org.matsim.core.scenario.ScenarioByInstanceModule.providePopulationFactory(org.matsim.api.core.v01.population.Population)
2019-12-12 12:54:25,437  INFO Injector:89   --> scope: Scopes.NO_SCOPE
2019-12-12 12:54:25,437  INFO Injector:94   ==full==> ProviderInstanceBinding{key=Key[type=org.matsim.api.core.v01.population.PopulationFactory, annotation=[none]], source=org.matsim.api.core.v01.population.PopulationFactory org.matsim.core.scenario.ScenarioByInstanceModule.providePopulationFactory(org.matsim.api.core.v01.population.Population), scope=Scopes.NO_SCOPE, provider=@Provides org.matsim.core.scenario.ScenarioByInstanceModule.providePopulationFactory(ScenarioByInstanceModule.java:68)}
2019-12-12 12:54:25,437  INFO Injector:96 
2019-12-12 12:54:25,437  INFO Injector:85 org.matsim.facilities.ActivityFacilities 
2019-12-12 12:54:25,437  INFO Injector:86   --> provider: @Provides org.matsim.core.scenario.ScenarioByInstanceModule.provideActivityFacilities(ScenarioByInstanceModule.java:72)
2019-12-12 12:54:25,437  INFO Injector:87   --> source: org.matsim.facilities.ActivityFacilities org.matsim.core.scenario.ScenarioByInstanceModule.provideActivityFacilities(org.matsim.api.core.v01.Scenario)
2019-12-12 12:54:25,437  INFO Injector:89   --> scope: Scopes.NO_SCOPE
2019-12-12 12:54:25,437  INFO Injector:94   ==full==> ProviderInstanceBinding{key=Key[type=org.matsim.facilities.ActivityFacilities, annotation=[none]], source=org.matsim.facilities.ActivityFacilities org.matsim.core.scenario.ScenarioByInstanceModule.provideActivityFacilities(org.matsim.api.core.v01.Scenario), scope=Scopes.NO_SCOPE, provider=@Provides org.matsim.core.scenario.ScenarioByInstanceModule.provideActivityFacilities(ScenarioByInstanceModule.java:72)}
2019-12-12 12:54:25,437  INFO Injector:96 
2019-12-12 12:54:25,437  INFO Injector:85 org.matsim.api.core.v01.network.Network 
2019-12-12 12:54:25,437  INFO Injector:86   --> provider: @Provides org.matsim.core.scenario.ScenarioByInstanceModule.provideNetwork(ScenarioByInstanceModule.java:60)
2019-12-12 12:54:25,437  INFO Injector:87   --> source: org.matsim.api.core.v01.network.Network org.matsim.core.scenario.ScenarioByInstanceModule.provideNetwork(org.matsim.api.core.v01.Scenario)
2019-12-12 12:54:25,437  INFO Injector:89   --> scope: Scopes.NO_SCOPE
2019-12-12 12:54:25,437  INFO Injector:94   ==full==> ProviderInstanceBinding{key=Key[type=org.matsim.api.core.v01.network.Network, annotation=[none]], source=org.matsim.api.core.v01.network.Network org.matsim.core.scenario.ScenarioByInstanceModule.provideNetwork(org.matsim.api.core.v01.Scenario), scope=Scopes.NO_SCOPE, provider=@Provides org.matsim.core.scenario.ScenarioByInstanceModule.provideNetwork(ScenarioByInstanceModule.java:60)}
2019-12-12 12:54:25,437  INFO Injector:96 
2019-12-12 12:54:25,437  INFO Injector:85 org.matsim.lanes.Lanes 
2019-12-12 12:54:25,437  INFO Injector:86   --> provider: @Provides org.matsim.core.scenario.ScenarioByInstanceModule.provideLanes(ScenarioByInstanceModule.java:87)
2019-12-12 12:54:25,437  INFO Injector:87   --> source: org.matsim.lanes.Lanes org.matsim.core.scenario.ScenarioByInstanceModule.provideLanes(org.matsim.api.core.v01.Scenario)
2019-12-12 12:54:25,437  INFO Injector:89   --> scope: Scopes.NO_SCOPE
2019-12-12 12:54:25,437  INFO Injector:94   ==full==> ProviderInstanceBinding{key=Key[type=org.matsim.lanes.Lanes, annotation=[none]], source=org.matsim.lanes.Lanes org.matsim.core.scenario.ScenarioByInstanceModule.provideLanes(org.matsim.api.core.v01.Scenario), scope=Scopes.NO_SCOPE, provider=@Provides org.matsim.core.scenario.ScenarioByInstanceModule.provideLanes(ScenarioByInstanceModule.java:87)}
2019-12-12 12:54:25,437  INFO Injector:96 
2019-12-12 12:54:25,437  INFO Injector:85 org.matsim.vehicles.Vehicles 
2019-12-12 12:54:25,437  INFO Injector:86   --> provider: @Provides org.matsim.core.scenario.ScenarioByInstanceModule.provideVehicles(ScenarioByInstanceModule.java:82)
2019-12-12 12:54:25,437  INFO Injector:87   --> source: org.matsim.vehicles.Vehicles org.matsim.core.scenario.ScenarioByInstanceModule.provideVehicles(org.matsim.api.core.v01.Scenario)
2019-12-12 12:54:25,437  INFO Injector:89   --> scope: Scopes.NO_SCOPE
2019-12-12 12:54:25,437  INFO Injector:94   ==full==> ProviderInstanceBinding{key=Key[type=org.matsim.vehicles.Vehicles, annotation=[none]], source=org.matsim.vehicles.Vehicles org.matsim.core.scenario.ScenarioByInstanceModule.provideVehicles(org.matsim.api.core.v01.Scenario), scope=Scopes.NO_SCOPE, provider=@Provides org.matsim.core.scenario.ScenarioByInstanceModule.provideVehicles(ScenarioByInstanceModule.java:82)}
2019-12-12 12:54:25,437  INFO Injector:96 
2019-12-12 12:54:25,437  INFO Injector:85 org.matsim.households.Households 
2019-12-12 12:54:25,437  INFO Injector:86   --> provider: @Provides org.matsim.core.scenario.ScenarioByInstanceModule.provideHouseholds(ScenarioByInstanceModule.java:77)
2019-12-12 12:54:25,437  INFO Injector:87   --> source: org.matsim.households.Households org.matsim.core.scenario.ScenarioByInstanceModule.provideHouseholds(org.matsim.api.core.v01.Scenario)
2019-12-12 12:54:25,437  INFO Injector:89   --> scope: Scopes.NO_SCOPE
2019-12-12 12:54:25,437  INFO Injector:94   ==full==> ProviderInstanceBinding{key=Key[type=org.matsim.households.Households, annotation=[none]], source=org.matsim.households.Households org.matsim.core.scenario.ScenarioByInstanceModule.provideHouseholds(org.matsim.api.core.v01.Scenario), scope=Scopes.NO_SCOPE, provider=@Provides org.matsim.core.scenario.ScenarioByInstanceModule.provideHouseholds(ScenarioByInstanceModule.java:77)}
2019-12-12 12:54:25,437  INFO Injector:96 
2019-12-12 12:54:25,437  INFO Injector:85 org.matsim.core.controler.ControlerI 
2019-12-12 12:54:25,437  INFO Injector:86   --> provider: FactoryProxy{key=Key[type=org.matsim.core.controler.ControlerI, annotation=[none]], provider=com.google.inject.internal.ConstructorBindingImpl$Factory@f973499}[Scopes.SINGLETON]
2019-12-12 12:54:25,437  INFO Injector:87   --> source: org.matsim.core.controler.NewControlerModule.install(NewControlerModule.java:29)
2019-12-12 12:54:25,437  INFO Injector:89   --> scope: eager singleton
2019-12-12 12:54:25,437  INFO Injector:92   --> target: Key[type=org.matsim.core.controler.NewControler, annotation=[none]]
2019-12-12 12:54:25,437  INFO Injector:94   ==full==> LinkedKeyBinding{key=Key[type=org.matsim.core.controler.ControlerI, annotation=[none]], source=org.matsim.core.controler.NewControlerModule.install(NewControlerModule.java:29), scope=eager singleton, target=Key[type=org.matsim.core.controler.NewControler, annotation=[none]]}
2019-12-12 12:54:25,437  INFO Injector:96 
2019-12-12 12:54:25,437  INFO Injector:85 org.matsim.core.controler.ControlerListenerManager 
2019-12-12 12:54:25,437  INFO Injector:86   --> provider: FactoryProxy{key=Key[type=org.matsim.core.controler.ControlerListenerManager, annotation=[none]], provider=com.google.inject.internal.ConstructorBindingImpl$Factory@7051777c[Scopes.SINGLETON]}
2019-12-12 12:54:25,437  INFO Injector:87   --> source: org.matsim.core.controler.NewControlerModule.install(NewControlerModule.java:31)
2019-12-12 12:54:25,437  INFO Injector:89   --> scope: Scopes.NO_SCOPE
2019-12-12 12:54:25,437  INFO Injector:92   --> target: Key[type=org.matsim.core.controler.ControlerListenerManagerImpl, annotation=[none]]
2019-12-12 12:54:25,437  INFO Injector:94   ==full==> LinkedKeyBinding{key=Key[type=org.matsim.core.controler.ControlerListenerManager, annotation=[none]], source=org.matsim.core.controler.NewControlerModule.install(NewControlerModule.java:31), scope=Scopes.NO_SCOPE, target=Key[type=org.matsim.core.controler.ControlerListenerManagerImpl, annotation=[none]]}
2019-12-12 12:54:25,437  INFO Injector:96 
2019-12-12 12:54:25,437  INFO Injector:85 org.matsim.core.controler.TerminationCriterion 
2019-12-12 12:54:25,437  INFO Injector:86   --> provider: FactoryProxy{key=Key[type=org.matsim.core.controler.TerminationCriterion, annotation=[none]], provider=com.google.inject.internal.ConstructorBindingImpl$Factory@60723d6a}
2019-12-12 12:54:25,437  INFO Injector:87   --> source: org.matsim.core.controler.NewControlerModule.install(NewControlerModule.java:35)
2019-12-12 12:54:25,437  INFO Injector:89   --> scope: Scopes.NO_SCOPE
2019-12-12 12:54:25,437  INFO Injector:92   --> target: Key[type=org.matsim.core.controler.TerminateAtFixedIterationNumber, annotation=[none]]
2019-12-12 12:54:25,437  INFO Injector:94   ==full==> LinkedKeyBinding{key=Key[type=org.matsim.core.controler.TerminationCriterion, annotation=[none]], source=org.matsim.core.controler.NewControlerModule.install(NewControlerModule.java:35), scope=Scopes.NO_SCOPE, target=Key[type=org.matsim.core.controler.TerminateAtFixedIterationNumber, annotation=[none]]}
2019-12-12 12:54:25,437  INFO Injector:96 
2019-12-12 12:54:25,437  INFO Injector:85 org.matsim.core.controler.MatsimServices 
2019-12-12 12:54:25,437  INFO Injector:86   --> provider: FactoryProxy{key=Key[type=org.matsim.core.controler.MatsimServices, annotation=[none]], provider=com.google.inject.internal.ConstructorBindingImpl$Factory@72209d93}
2019-12-12 12:54:25,437  INFO Injector:87   --> source: org.matsim.core.controler.NewControlerModule.install(NewControlerModule.java:36)
2019-12-12 12:54:25,437  INFO Injector:89   --> scope: Scopes.NO_SCOPE
2019-12-12 12:54:25,437  INFO Injector:92   --> target: Key[type=org.matsim.core.controler.MatsimServicesImpl, annotation=[none]]
2019-12-12 12:54:25,437  INFO Injector:94   ==full==> LinkedKeyBinding{key=Key[type=org.matsim.core.controler.MatsimServices, annotation=[none]], source=org.matsim.core.controler.NewControlerModule.install(NewControlerModule.java:36), scope=Scopes.NO_SCOPE, target=Key[type=org.matsim.core.controler.MatsimServicesImpl, annotation=[none]]}
2019-12-12 12:54:25,437  INFO Injector:96 
2019-12-12 12:54:25,437  INFO Injector:85 org.matsim.core.controler.IterationCounter 
2019-12-12 12:54:25,437  INFO Injector:86   --> provider: FactoryProxy{key=Key[type=org.matsim.core.controler.IterationCounter, annotation=[none]], provider=com.google.inject.internal.ConstructorBindingImpl$Factory@72209d93}
2019-12-12 12:54:25,437  INFO Injector:87   --> source: org.matsim.core.controler.NewControlerModule.install(NewControlerModule.java:38)
2019-12-12 12:54:25,437  INFO Injector:89   --> scope: Scopes.NO_SCOPE
2019-12-12 12:54:25,437  INFO Injector:92   --> target: Key[type=org.matsim.core.controler.MatsimServicesImpl, annotation=[none]]
2019-12-12 12:54:25,437  INFO Injector:94   ==full==> LinkedKeyBinding{key=Key[type=org.matsim.core.controler.IterationCounter, annotation=[none]], source=org.matsim.core.controler.NewControlerModule.install(NewControlerModule.java:38), scope=Scopes.NO_SCOPE, target=Key[type=org.matsim.core.controler.MatsimServicesImpl, annotation=[none]]}
2019-12-12 12:54:25,437  INFO Injector:96 
2019-12-12 12:54:25,437  INFO Injector:85 org.matsim.core.controler.PrepareForSim 
2019-12-12 12:54:25,437  INFO Injector:86   --> provider: FactoryProxy{key=Key[type=org.matsim.core.controler.PrepareForSim, annotation=[none]], provider=com.google.inject.internal.ConstructorBindingImpl$Factory@1e63d216}
2019-12-12 12:54:25,437  INFO Injector:87   --> source: org.matsim.core.controler.NewControlerModule.install(NewControlerModule.java:42)
2019-12-12 12:54:25,445  INFO Injector:89   --> scope: Scopes.NO_SCOPE
2019-12-12 12:54:25,445  INFO Injector:92   --> target: Key[type=org.matsim.core.controler.PrepareForSimImpl, annotation=[none]]
2019-12-12 12:54:25,445  INFO Injector:94   ==full==> LinkedKeyBinding{key=Key[type=org.matsim.core.controler.PrepareForSim, annotation=[none]], source=org.matsim.core.controler.NewControlerModule.install(NewControlerModule.java:42), scope=Scopes.NO_SCOPE, target=Key[type=org.matsim.core.controler.PrepareForSimImpl, annotation=[none]]}
2019-12-12 12:54:25,445  INFO Injector:96 
2019-12-12 12:54:25,445  INFO Injector:85 org.matsim.core.controler.PrepareForMobsim 
2019-12-12 12:54:25,445  INFO Injector:86   --> provider: FactoryProxy{key=Key[type=org.matsim.core.controler.PrepareForMobsim, annotation=[none]], provider=com.google.inject.internal.ConstructorBindingImpl$Factory@35f8a9d3}
2019-12-12 12:54:25,445  INFO Injector:87   --> source: org.matsim.core.controler.NewControlerModule.install(NewControlerModule.java:43)
2019-12-12 12:54:25,445  INFO Injector:89   --> scope: Scopes.NO_SCOPE
2019-12-12 12:54:25,445  INFO Injector:92   --> target: Key[type=org.matsim.core.controler.PrepareForMobsimImpl, annotation=[none]]
2019-12-12 12:54:25,445  INFO Injector:94   ==full==> LinkedKeyBinding{key=Key[type=org.matsim.core.controler.PrepareForMobsim, annotation=[none]], source=org.matsim.core.controler.NewControlerModule.install(NewControlerModule.java:43), scope=Scopes.NO_SCOPE, target=Key[type=org.matsim.core.controler.PrepareForMobsimImpl, annotation=[none]]}
2019-12-12 12:54:25,445  INFO Injector:96 
2019-12-12 12:54:25,445  INFO Injector:85 org.matsim.core.controler.corelisteners.PlansScoring 
2019-12-12 12:54:25,445  INFO Injector:86   --> provider: FactoryProxy{key=Key[type=org.matsim.core.controler.corelisteners.PlansScoring, annotation=[none]], provider=com.google.inject.internal.ConstructorBindingImpl$Factory@56de6d6b[Scopes.SINGLETON]}
2019-12-12 12:54:25,445  INFO Injector:87   --> source: org.matsim.core.scoring.PlansScoringModule.install(PlansScoringModule.java:32)
2019-12-12 12:54:25,445  INFO Injector:89   --> scope: Scopes.NO_SCOPE
2019-12-12 12:54:25,445  INFO Injector:92   --> target: Key[type=org.matsim.core.scoring.PlansScoringImpl, annotation=[none]]
2019-12-12 12:54:25,445  INFO Injector:94   ==full==> LinkedKeyBinding{key=Key[type=org.matsim.core.controler.corelisteners.PlansScoring, annotation=[none]], source=org.matsim.core.scoring.PlansScoringModule.install(PlansScoringModule.java:32), scope=Scopes.NO_SCOPE, target=Key[type=org.matsim.core.scoring.PlansScoringImpl, annotation=[none]]}
2019-12-12 12:54:25,447  INFO Injector:96 
2019-12-12 12:54:25,447  INFO Injector:85 org.matsim.core.controler.corelisteners.PlansReplanning 
2019-12-12 12:54:25,447  INFO Injector:86   --> provider: FactoryProxy{key=Key[type=org.matsim.core.controler.corelisteners.PlansReplanning, annotation=[none]], provider=com.google.inject.internal.ConstructorBindingImpl$Factory@551de37d[Scopes.SINGLETON]}
2019-12-12 12:54:25,447  INFO Injector:87   --> source: org.matsim.core.controler.corelisteners.ControlerDefaultCoreListenersModule.install(ControlerDefaultCoreListenersModule.java:38)
2019-12-12 12:54:25,447  INFO Injector:89   --> scope: Scopes.NO_SCOPE
2019-12-12 12:54:25,447  INFO Injector:92   --> target: Key[type=org.matsim.core.controler.corelisteners.PlansReplanningImpl, annotation=[none]]
2019-12-12 12:54:25,447  INFO Injector:94   ==full==> LinkedKeyBinding{key=Key[type=org.matsim.core.controler.corelisteners.PlansReplanning, annotation=[none]], source=org.matsim.core.controler.corelisteners.ControlerDefaultCoreListenersModule.install(ControlerDefaultCoreListenersModule.java:38), scope=Scopes.NO_SCOPE, target=Key[type=org.matsim.core.controler.corelisteners.PlansReplanningImpl, annotation=[none]]}
2019-12-12 12:54:25,447  INFO Injector:96 
2019-12-12 12:54:25,447  INFO Injector:85 org.matsim.core.controler.corelisteners.PlansDumping 
2019-12-12 12:54:25,447  INFO Injector:86   --> provider: FactoryProxy{key=Key[type=org.matsim.core.controler.corelisteners.PlansDumping, annotation=[none]], provider=com.google.inject.internal.ConstructorBindingImpl$Factory@3028e50e[Scopes.SINGLETON]}
2019-12-12 12:54:25,447  INFO Injector:87   --> source: org.matsim.core.controler.corelisteners.ControlerDefaultCoreListenersModule.install(ControlerDefaultCoreListenersModule.java:39)
2019-12-12 12:54:25,447  INFO Injector:89   --> scope: Scopes.NO_SCOPE
2019-12-12 12:54:25,447  INFO Injector:92   --> target: Key[type=org.matsim.core.controler.corelisteners.PlansDumpingImpl, annotation=[none]]
2019-12-12 12:54:25,447  INFO Injector:94   ==full==> LinkedKeyBinding{key=Key[type=org.matsim.core.controler.corelisteners.PlansDumping, annotation=[none]], source=org.matsim.core.controler.corelisteners.ControlerDefaultCoreListenersModule.install(ControlerDefaultCoreListenersModule.java:39), scope=Scopes.NO_SCOPE, target=Key[type=org.matsim.core.controler.corelisteners.PlansDumpingImpl, annotation=[none]]}
2019-12-12 12:54:25,447  INFO Injector:96 
2019-12-12 12:54:25,447  INFO Injector:85 org.matsim.core.controler.corelisteners.EventsHandling 
2019-12-12 12:54:25,447  INFO Injector:86   --> provider: FactoryProxy{key=Key[type=org.matsim.core.controler.corelisteners.EventsHandling, annotation=[none]], provider=com.google.inject.internal.ConstructorBindingImpl$Factory@4bdc8b5d[Scopes.SINGLETON]}
2019-12-12 12:54:25,447  INFO Injector:87   --> source: org.matsim.core.controler.corelisteners.ControlerDefaultCoreListenersModule.install(ControlerDefaultCoreListenersModule.java:40)
2019-12-12 12:54:25,447  INFO Injector:89   --> scope: Scopes.NO_SCOPE
2019-12-12 12:54:25,447  INFO Injector:92   --> target: Key[type=org.matsim.core.controler.corelisteners.EventsHandlingImpl, annotation=[none]]
2019-12-12 12:54:25,447  INFO Injector:94   ==full==> LinkedKeyBinding{key=Key[type=org.matsim.core.controler.corelisteners.EventsHandling, annotation=[none]], source=org.matsim.core.controler.corelisteners.ControlerDefaultCoreListenersModule.install(ControlerDefaultCoreListenersModule.java:40), scope=Scopes.NO_SCOPE, target=Key[type=org.matsim.core.controler.corelisteners.EventsHandlingImpl, annotation=[none]]}
2019-12-12 12:54:25,447  INFO Injector:96 
2019-12-12 12:54:25,447  INFO Injector:85 org.matsim.core.controler.corelisteners.DumpDataAtEnd 
2019-12-12 12:54:25,447  INFO Injector:86   --> provider: FactoryProxy{key=Key[type=org.matsim.core.controler.corelisteners.DumpDataAtEnd, annotation=[none]], provider=com.google.inject.internal.ConstructorBindingImpl$Factory@160396db[Scopes.SINGLETON]}
2019-12-12 12:54:25,447  INFO Injector:87   --> source: org.matsim.core.controler.corelisteners.ControlerDefaultCoreListenersModule.install(ControlerDefaultCoreListenersModule.java:41)
2019-12-12 12:54:25,447  INFO Injector:89   --> scope: Scopes.NO_SCOPE
2019-12-12 12:54:25,447  INFO Injector:92   --> target: Key[type=org.matsim.core.controler.corelisteners.DumpDataAtEndImpl, annotation=[none]]
2019-12-12 12:54:25,447  INFO Injector:94   ==full==> LinkedKeyBinding{key=Key[type=org.matsim.core.controler.corelisteners.DumpDataAtEnd, annotation=[none]], source=org.matsim.core.controler.corelisteners.ControlerDefaultCoreListenersModule.install(ControlerDefaultCoreListenersModule.java:41), scope=Scopes.NO_SCOPE, target=Key[type=org.matsim.core.controler.corelisteners.DumpDataAtEndImpl, annotation=[none]]}
2019-12-12 12:54:25,447  INFO Injector:96 
2019-12-12 12:54:25,447  INFO Injector:85 org.matsim.core.api.experimental.events.EventsManager 
2019-12-12 12:54:25,447  INFO Injector:86   --> provider: FactoryProxy{key=Key[type=org.matsim.core.api.experimental.events.EventsManager, annotation=[none]], provider=com.google.inject.internal.ConstructorBindingImpl$Factory@77ee25f1}[Scopes.SINGLETON]
2019-12-12 12:54:25,447  INFO Injector:87   --> source: org.matsim.core.events.EventsManagerModule.install(EventsManagerModule.java:44)
2019-12-12 12:54:25,447  INFO Injector:89   --> scope: eager singleton
2019-12-12 12:54:25,447  INFO Injector:92   --> target: Key[type=org.matsim.core.events.SimStepParallelEventsManagerImpl, annotation=[none]]
2019-12-12 12:54:25,447  INFO Injector:94   ==full==> LinkedKeyBinding{key=Key[type=org.matsim.core.api.experimental.events.EventsManager, annotation=[none]], source=org.matsim.core.events.EventsManagerModule.install(EventsManagerModule.java:44), scope=eager singleton, target=Key[type=org.matsim.core.events.SimStepParallelEventsManagerImpl, annotation=[none]]}
2019-12-12 12:54:25,447  INFO Injector:96 
2019-12-12 12:54:25,447  INFO Injector:85 org.matsim.core.mobsim.qsim.components.QSimComponentsConfig 
2019-12-12 12:54:25,447  INFO Injector:86   --> provider: @Provides org.matsim.core.mobsim.qsim.components.QSimComponentsModule.provideDefaultQSimComponentsConfig(QSimComponentsModule.java:34)[Scopes.SINGLETON]
2019-12-12 12:54:25,447  INFO Injector:87   --> source: public org.matsim.core.mobsim.qsim.components.QSimComponentsConfig org.matsim.core.mobsim.qsim.components.QSimComponentsModule.provideDefaultQSimComponentsConfig(org.matsim.core.config.Config)
2019-12-12 12:54:25,447  INFO Injector:89   --> scope: Scopes.SINGLETON
2019-12-12 12:54:25,447  INFO Injector:94   ==full==> ProviderInstanceBinding{key=Key[type=org.matsim.core.mobsim.qsim.components.QSimComponentsConfig, annotation=[none]], source=public org.matsim.core.mobsim.qsim.components.QSimComponentsConfig org.matsim.core.mobsim.qsim.components.QSimComponentsModule.provideDefaultQSimComponentsConfig(org.matsim.core.config.Config), scope=Scopes.SINGLETON, provider=@Provides org.matsim.core.mobsim.qsim.components.QSimComponentsModule.provideDefaultQSimComponentsConfig(QSimComponentsModule.java:34)}
2019-12-12 12:54:25,447  INFO Injector:96 
2019-12-12 12:54:25,447  INFO Injector:85 org.matsim.core.mobsim.qsim.AbstractQSimModule @com.google.inject.multibindings.Element(setName=,uniqueId=71, type=MULTIBINDER, keyType=)
2019-12-12 12:54:25,447  INFO Injector:86   --> provider: of(org.matsim.core.mobsim.qsim.messagequeueengine.MessageQueueModule@44f9779c)
2019-12-12 12:54:25,447  INFO Injector:87   --> source: java.util.Arrays$ArrayList.forEach(Arrays.java:3880)
2019-12-12 12:54:25,447  INFO Injector:89   --> scope: eager singleton
2019-12-12 12:54:25,447  INFO Injector:94   ==full==> InstanceBinding{key=Key[type=org.matsim.core.mobsim.qsim.AbstractQSimModule, annotation=@com.google.inject.multibindings.Element(setName=,uniqueId=71, type=MULTIBINDER, keyType=)], source=java.util.Arrays$ArrayList.forEach(Arrays.java:3880), instance=org.matsim.core.mobsim.qsim.messagequeueengine.MessageQueueModule@44f9779c}
2019-12-12 12:54:25,447  INFO Injector:96 
2019-12-12 12:54:25,447  INFO Injector:85 org.matsim.core.mobsim.qsim.AbstractQSimModule @com.google.inject.multibindings.Element(setName=,uniqueId=72, type=MULTIBINDER, keyType=)
2019-12-12 12:54:25,447  INFO Injector:86   --> provider: of(org.matsim.core.mobsim.qsim.ActivityEngineModule@6974a715)
2019-12-12 12:54:25,447  INFO Injector:87   --> source: java.util.Arrays$ArrayList.forEach(Arrays.java:3880)
2019-12-12 12:54:25,447  INFO Injector:89   --> scope: eager singleton
2019-12-12 12:54:25,447  INFO Injector:94   ==full==> InstanceBinding{key=Key[type=org.matsim.core.mobsim.qsim.AbstractQSimModule, annotation=@com.google.inject.multibindings.Element(setName=,uniqueId=72, type=MULTIBINDER, keyType=)], source=java.util.Arrays$ArrayList.forEach(Arrays.java:3880), instance=org.matsim.core.mobsim.qsim.ActivityEngineModule@6974a715}
2019-12-12 12:54:25,447  INFO Injector:96 
2019-12-12 12:54:25,447  INFO Injector:85 org.matsim.core.mobsim.qsim.AbstractQSimModule @com.google.inject.multibindings.Element(setName=,uniqueId=73, type=MULTIBINDER, keyType=)
2019-12-12 12:54:25,447  INFO Injector:86   --> provider: of(org.matsim.core.mobsim.qsim.qnetsimengine.QNetsimEngineModule@5e8a459)
2019-12-12 12:54:25,447  INFO Injector:87   --> source: java.util.Arrays$ArrayList.forEach(Arrays.java:3880)
2019-12-12 12:54:25,447  INFO Injector:89   --> scope: eager singleton
2019-12-12 12:54:25,447  INFO Injector:94   ==full==> InstanceBinding{key=Key[type=org.matsim.core.mobsim.qsim.AbstractQSimModule, annotation=@com.google.inject.multibindings.Element(setName=,uniqueId=73, type=MULTIBINDER, keyType=)], source=java.util.Arrays$ArrayList.forEach(Arrays.java:3880), instance=org.matsim.core.mobsim.qsim.qnetsimengine.QNetsimEngineModule@5e8a459}
2019-12-12 12:54:25,447  INFO Injector:96 
2019-12-12 12:54:25,447  INFO Injector:85 org.matsim.core.mobsim.qsim.AbstractQSimModule @com.google.inject.multibindings.Element(setName=,uniqueId=74, type=MULTIBINDER, keyType=)
2019-12-12 12:54:25,447  INFO Injector:86   --> provider: of(org.matsim.core.mobsim.qsim.TeleportationModule@43d455c9)
2019-12-12 12:54:25,447  INFO Injector:87   --> source: java.util.Arrays$ArrayList.forEach(Arrays.java:3880)
2019-12-12 12:54:25,447  INFO Injector:89   --> scope: eager singleton
2019-12-12 12:54:25,447  INFO Injector:94   ==full==> InstanceBinding{key=Key[type=org.matsim.core.mobsim.qsim.AbstractQSimModule, annotation=@com.google.inject.multibindings.Element(setName=,uniqueId=74, type=MULTIBINDER, keyType=)], source=java.util.Arrays$ArrayList.forEach(Arrays.java:3880), instance=org.matsim.core.mobsim.qsim.TeleportationModule@43d455c9}
2019-12-12 12:54:25,447  INFO Injector:96 
2019-12-12 12:54:25,447  INFO Injector:85 org.matsim.core.mobsim.qsim.AbstractQSimModule @com.google.inject.multibindings.Element(setName=,uniqueId=75, type=MULTIBINDER, keyType=)
2019-12-12 12:54:25,447  INFO Injector:86   --> provider: of(org.matsim.core.mobsim.qsim.PopulationModule@4c9e9fb8)
2019-12-12 12:54:25,447  INFO Injector:87   --> source: java.util.Arrays$ArrayList.forEach(Arrays.java:3880)
2019-12-12 12:54:25,447  INFO Injector:89   --> scope: eager singleton
2019-12-12 12:54:25,447  INFO Injector:94   ==full==> InstanceBinding{key=Key[type=org.matsim.core.mobsim.qsim.AbstractQSimModule, annotation=@com.google.inject.multibindings.Element(setName=,uniqueId=75, type=MULTIBINDER, keyType=)], source=java.util.Arrays$ArrayList.forEach(Arrays.java:3880), instance=org.matsim.core.mobsim.qsim.PopulationModule@4c9e9fb8}
2019-12-12 12:54:25,447  INFO Injector:96 
2019-12-12 12:54:25,447  INFO Injector:85 org.matsim.core.mobsim.qsim.AbstractQSimModule @com.google.inject.multibindings.Element(setName=,uniqueId=76, type=MULTIBINDER, keyType=)
2019-12-12 12:54:25,447  INFO Injector:86   --> provider: of(org.matsim.core.mobsim.qsim.changeeventsengine.NetworkChangeEventsModule@9ec531)
2019-12-12 12:54:25,447  INFO Injector:87   --> source: java.util.Arrays$ArrayList.forEach(Arrays.java:3880)
2019-12-12 12:54:25,447  INFO Injector:89   --> scope: eager singleton
2019-12-12 12:54:25,447  INFO Injector:94   ==full==> InstanceBinding{key=Key[type=org.matsim.core.mobsim.qsim.AbstractQSimModule, annotation=@com.google.inject.multibindings.Element(setName=,uniqueId=76, type=MULTIBINDER, keyType=)], source=java.util.Arrays$ArrayList.forEach(Arrays.java:3880), instance=org.matsim.core.mobsim.qsim.changeeventsengine.NetworkChangeEventsModule@9ec531}
2019-12-12 12:54:25,447  INFO Injector:96 
2019-12-12 12:54:25,447  INFO Injector:85 org.matsim.core.mobsim.qsim.AbstractQSimModule @com.google.inject.multibindings.Element(setName=,uniqueId=77, type=MULTIBINDER, keyType=)
2019-12-12 12:54:25,447  INFO Injector:86   --> provider: of(org.matsim.core.mobsim.qsim.pt.TransitEngineModule@40147317)
2019-12-12 12:54:25,447  INFO Injector:87   --> source: java.util.Arrays$ArrayList.forEach(Arrays.java:3880)
2019-12-12 12:54:25,447  INFO Injector:89   --> scope: eager singleton
2019-12-12 12:54:25,447  INFO Injector:94   ==full==> InstanceBinding{key=Key[type=org.matsim.core.mobsim.qsim.AbstractQSimModule, annotation=@com.google.inject.multibindings.Element(setName=,uniqueId=77, type=MULTIBINDER, keyType=)], source=java.util.Arrays$ArrayList.forEach(Arrays.java:3880), instance=org.matsim.core.mobsim.qsim.pt.TransitEngineModule@40147317}
2019-12-12 12:54:25,447  INFO Injector:96 
2019-12-12 12:54:25,447  INFO Injector:85 org.matsim.core.trafficmonitoring.TravelTimeCalculator @com.google.inject.name.Named(value=car)
2019-12-12 12:54:25,447  INFO Injector:86   --> provider: org.matsim.core.trafficmonitoring.TravelTimeCalculatorModule$SingleModeTravelTimeCalculatorProvider@6e0d4a8[Scopes.SINGLETON]
2019-12-12 12:54:25,447  INFO Injector:87   --> source: org.matsim.core.trafficmonitoring.TravelTimeCalculatorModule.install(TravelTimeCalculatorModule.java:63)
2019-12-12 12:54:25,447  INFO Injector:89   --> scope: Scopes.SINGLETON
2019-12-12 12:54:25,447  INFO Injector:94   ==full==> ProviderInstanceBinding{key=Key[type=org.matsim.core.trafficmonitoring.TravelTimeCalculator, annotation=@com.google.inject.name.Named(value=car)], source=org.matsim.core.trafficmonitoring.TravelTimeCalculatorModule.install(TravelTimeCalculatorModule.java:63), scope=Scopes.SINGLETON, provider=org.matsim.core.trafficmonitoring.TravelTimeCalculatorModule$SingleModeTravelTimeCalculatorProvider@6e0d4a8}
2019-12-12 12:54:25,447  INFO Injector:96 
2019-12-12 12:54:25,455  INFO Injector:85 org.matsim.core.router.util.TravelTime @com.google.inject.name.Named(value=car)
2019-12-12 12:54:25,455  INFO Injector:86   --> provider: org.matsim.core.trafficmonitoring.TravelTimeCalculatorModule$1@64d7b720
2019-12-12 12:54:25,455  INFO Injector:87   --> source: org.matsim.core.trafficmonitoring.TravelTimeCalculatorModule.install(TravelTimeCalculatorModule.java:66)
2019-12-12 12:54:25,455  INFO Injector:89   --> scope: Scopes.NO_SCOPE
2019-12-12 12:54:25,455  INFO Injector:94   ==full==> ProviderInstanceBinding{key=Key[type=org.matsim.core.router.util.TravelTime, annotation=@com.google.inject.name.Named(value=car)], source=org.matsim.core.trafficmonitoring.TravelTimeCalculatorModule.install(TravelTimeCalculatorModule.java:66), scope=Scopes.NO_SCOPE, provider=org.matsim.core.trafficmonitoring.TravelTimeCalculatorModule$1@64d7b720}
2019-12-12 12:54:25,455  INFO Injector:96 
2019-12-12 12:54:25,455  INFO Injector:85 org.matsim.core.router.costcalculators.TravelDisutilityFactory @com.google.inject.name.Named(value=car)
2019-12-12 12:54:25,455  INFO Injector:86   --> provider: of(org.matsim.core.router.costcalculators.RandomizingTimeDistanceTravelDisutilityFactory@67a056f1)
2019-12-12 12:54:25,455  INFO Injector:87   --> source: org.matsim.core.router.costcalculators.TravelDisutilityModule.install(TravelDisutilityModule.java:34)
2019-12-12 12:54:25,455  INFO Injector:89   --> scope: eager singleton
2019-12-12 12:54:25,455  INFO Injector:94   ==full==> InstanceBinding{key=Key[type=org.matsim.core.router.costcalculators.TravelDisutilityFactory, annotation=@com.google.inject.name.Named(value=car)], source=org.matsim.core.router.costcalculators.TravelDisutilityModule.install(TravelDisutilityModule.java:34), instance=org.matsim.core.router.costcalculators.RandomizingTimeDistanceTravelDisutilityFactory@67a056f1}
2019-12-12 12:54:25,455  INFO Injector:96 
2019-12-12 12:54:25,455  INFO Injector:85 org.matsim.core.scoring.ScoringFunctionFactory 
2019-12-12 12:54:25,517  INFO Injector:86   --> provider: FactoryProxy{key=Key[type=org.matsim.core.scoring.ScoringFunctionFactory, annotation=[none]], provider=com.google.inject.internal.ConstructorBindingImpl$Factory@4bee18dc}
2019-12-12 12:54:25,517  INFO Injector:87   --> source: org.matsim.core.scoring.functions.CharyparNagelScoringFunctionModule.install(CharyparNagelScoringFunctionModule.java:36)
2019-12-12 12:54:25,517  INFO Injector:89   --> scope: Scopes.NO_SCOPE
2019-12-12 12:54:25,517  INFO Injector:92   --> target: Key[type=org.matsim.core.scoring.functions.CharyparNagelScoringFunctionFactory, annotation=[none]]
2019-12-12 12:54:25,525  INFO Injector:94   ==full==> LinkedKeyBinding{key=Key[type=org.matsim.core.scoring.ScoringFunctionFactory, annotation=[none]], source=org.matsim.core.scoring.functions.CharyparNagelScoringFunctionModule.install(CharyparNagelScoringFunctionModule.java:36), scope=Scopes.NO_SCOPE, target=Key[type=org.matsim.core.scoring.functions.CharyparNagelScoringFunctionFactory, annotation=[none]]}
2019-12-12 12:54:25,525  INFO Injector:96 
2019-12-12 12:54:25,525  INFO Injector:85 org.matsim.core.scoring.functions.ScoringParametersForPerson 
2019-12-12 12:54:25,525  INFO Injector:86   --> provider: FactoryProxy{key=Key[type=org.matsim.core.scoring.functions.ScoringParametersForPerson, annotation=[none]], provider=com.google.inject.internal.ConstructorBindingImpl$Factory@6de30571}
2019-12-12 12:54:25,525  INFO Injector:87   --> source: org.matsim.core.scoring.functions.CharyparNagelScoringFunctionModule.install(CharyparNagelScoringFunctionModule.java:37)
2019-12-12 12:54:25,525  INFO Injector:89   --> scope: Scopes.NO_SCOPE
2019-12-12 12:54:25,525  INFO Injector:92   --> target: Key[type=org.matsim.core.scoring.functions.SubpopulationScoringParameters, annotation=[none]]
2019-12-12 12:54:25,525  INFO Injector:94   ==full==> LinkedKeyBinding{key=Key[type=org.matsim.core.scoring.functions.ScoringParametersForPerson, annotation=[none]], source=org.matsim.core.scoring.functions.CharyparNagelScoringFunctionModule.install(CharyparNagelScoringFunctionModule.java:37), scope=Scopes.NO_SCOPE, target=Key[type=org.matsim.core.scoring.functions.SubpopulationScoringParameters, annotation=[none]]}
2019-12-12 12:54:25,525  INFO Injector:96 
2019-12-12 12:54:25,525  INFO Injector:85 org.matsim.core.router.MainModeIdentifier 
2019-12-12 12:54:25,525  INFO Injector:86   --> provider: FactoryProxy{key=Key[type=org.matsim.core.router.MainModeIdentifier, annotation=[none]], provider=com.google.inject.internal.ConstructorBindingImpl$Factory@1763992e}
2019-12-12 12:54:25,525  INFO Injector:87   --> source: org.matsim.core.router.TripRouterModule.install(TripRouterModule.java:44)
2019-12-12 12:54:25,525  INFO Injector:89   --> scope: Scopes.NO_SCOPE
2019-12-12 12:54:25,525  INFO Injector:92   --> target: Key[type=org.matsim.core.router.MainModeIdentifierImpl, annotation=[none]]
2019-12-12 12:54:25,525  INFO Injector:94   ==full==> LinkedKeyBinding{key=Key[type=org.matsim.core.router.MainModeIdentifier, annotation=[none]], source=org.matsim.core.router.TripRouterModule.install(TripRouterModule.java:44), scope=Scopes.NO_SCOPE, target=Key[type=org.matsim.core.router.MainModeIdentifierImpl, annotation=[none]]}
2019-12-12 12:54:25,525  INFO Injector:96 
2019-12-12 12:54:25,525  INFO Injector:85 org.matsim.core.router.util.LeastCostPathCalculatorFactory 
2019-12-12 12:54:25,525  INFO Injector:86   --> provider: FactoryProxy{key=Key[type=org.matsim.core.router.util.LeastCostPathCalculatorFactory, annotation=[none]], provider=com.google.inject.internal.ConstructorBindingImpl$Factory@267517e4[Scopes.SINGLETON]}
2019-12-12 12:54:25,525  INFO Injector:87   --> source: org.matsim.core.router.LeastCostPathCalculatorModule.install(LeastCostPathCalculatorModule.java:46)
2019-12-12 12:54:25,525  INFO Injector:89   --> scope: Scopes.NO_SCOPE
2019-12-12 12:54:25,525  INFO Injector:92   --> target: Key[type=org.matsim.core.router.FastAStarLandmarksFactory, annotation=[none]]
2019-12-12 12:54:25,525  INFO Injector:94   ==full==> LinkedKeyBinding{key=Key[type=org.matsim.core.router.util.LeastCostPathCalculatorFactory, annotation=[none]], source=org.matsim.core.router.LeastCostPathCalculatorModule.install(LeastCostPathCalculatorModule.java:46), scope=Scopes.NO_SCOPE, target=Key[type=org.matsim.core.router.FastAStarLandmarksFactory, annotation=[none]]}
2019-12-12 12:54:25,527  INFO Injector:96 
2019-12-12 12:54:25,527  INFO Injector:85 org.matsim.core.router.RoutingModule @com.google.inject.name.Named(value=walk)
2019-12-12 12:54:25,527  INFO Injector:86   --> provider: org.matsim.core.router.BeelineTeleportationRouting@30272916
2019-12-12 12:54:25,527  INFO Injector:87   --> source: org.matsim.core.router.TripRouterModule.install(TripRouterModule.java:58)
2019-12-12 12:54:25,527  INFO Injector:89   --> scope: Scopes.NO_SCOPE
2019-12-12 12:54:25,527  INFO Injector:94   ==full==> ProviderInstanceBinding{key=Key[type=org.matsim.core.router.RoutingModule, annotation=@com.google.inject.name.Named(value=walk)], source=org.matsim.core.router.TripRouterModule.install(TripRouterModule.java:58), scope=Scopes.NO_SCOPE, provider=org.matsim.core.router.BeelineTeleportationRouting@30272916}
2019-12-12 12:54:25,527  INFO Injector:96 
2019-12-12 12:54:25,527  INFO Injector:85 org.matsim.core.router.RoutingModule @com.google.inject.name.Named(value=non_network_walk)
2019-12-12 12:54:25,527  INFO Injector:86   --> provider: org.matsim.core.router.BeelineTeleportationRouting@5bb3d42d
2019-12-12 12:54:25,527  INFO Injector:87   --> source: org.matsim.core.router.TripRouterModule.install(TripRouterModule.java:58)
2019-12-12 12:54:25,527  INFO Injector:89   --> scope: Scopes.NO_SCOPE
2019-12-12 12:54:25,527  INFO Injector:94   ==full==> ProviderInstanceBinding{key=Key[type=org.matsim.core.router.RoutingModule, annotation=@com.google.inject.name.Named(value=non_network_walk)], source=org.matsim.core.router.TripRouterModule.install(TripRouterModule.java:58), scope=Scopes.NO_SCOPE, provider=org.matsim.core.router.BeelineTeleportationRouting@5bb3d42d}
2019-12-12 12:54:25,527  INFO Injector:96 
2019-12-12 12:54:25,527  INFO Injector:85 org.matsim.core.router.RoutingModule @com.google.inject.name.Named(value=car)
2019-12-12 12:54:25,527  INFO Injector:86   --> provider: org.matsim.core.router.NetworkRoutingProvider@5bf61e67
2019-12-12 12:54:25,527  INFO Injector:87   --> source: org.matsim.core.router.TripRouterModule.install(TripRouterModule.java:66)
2019-12-12 12:54:25,527  INFO Injector:89   --> scope: Scopes.NO_SCOPE
2019-12-12 12:54:25,527  INFO Injector:94   ==full==> ProviderInstanceBinding{key=Key[type=org.matsim.core.router.RoutingModule, annotation=@com.google.inject.name.Named(value=car)], source=org.matsim.core.router.TripRouterModule.install(TripRouterModule.java:66), scope=Scopes.NO_SCOPE, provider=org.matsim.core.router.NetworkRoutingProvider@5bf61e67}
2019-12-12 12:54:25,527  INFO Injector:96 
2019-12-12 12:54:25,527  INFO Injector:85 org.matsim.core.replanning.selectors.PlanSelector<org.matsim.api.core.v01.population.Plan, org.matsim.api.core.v01.population.Person> 
2019-12-12 12:54:25,527  INFO Injector:86   --> provider: FactoryProxy{key=Key[type=org.matsim.core.replanning.selectors.PlanSelector<org.matsim.api.core.v01.population.Plan, org.matsim.api.core.v01.population.Person>, annotation=[none]], provider=com.google.inject.internal.ConstructorBindingImpl$Factory@6b587673}
2019-12-12 12:54:25,527  INFO Injector:87   --> source: org.matsim.core.replanning.strategies.DefaultPlanStrategiesModule.install(DefaultPlanStrategiesModule.java:53)
2019-12-12 12:54:25,527  INFO Injector:89   --> scope: Scopes.NO_SCOPE
2019-12-12 12:54:25,527  INFO Injector:92   --> target: Key[type=org.matsim.core.replanning.selectors.WorstPlanForRemovalSelector, annotation=[none]]
2019-12-12 12:54:25,527  INFO Injector:94   ==full==> LinkedKeyBinding{key=Key[type=org.matsim.core.replanning.selectors.PlanSelector<org.matsim.api.core.v01.population.Plan, org.matsim.api.core.v01.population.Person>, annotation=[none]], source=org.matsim.core.replanning.strategies.DefaultPlanStrategiesModule.install(DefaultPlanStrategiesModule.java:53), scope=Scopes.NO_SCOPE, target=Key[type=org.matsim.core.replanning.selectors.WorstPlanForRemovalSelector, annotation=[none]]}
2019-12-12 12:54:25,527  INFO Injector:96 
[...]
2019-12-12 12:54:26,242  INFO MobsimListenerManager:53   assigned class org.matsim.core.mobsim.framework.listeners.MobsimListener to interface org.matsim.core.mobsim.qsim.messagequeueengine.MessageQueueEngine
2019-12-12 12:54:26,242  INFO MobsimListenerManager:53   assigned class org.matsim.core.mobsim.framework.listeners.MobsimListener to interface org.matsim.core.mobsim.framework.listeners.MobsimBeforeSimStepListener
2019-12-12 12:54:26,242  INFO QSimProvider:135 Added MobsimListener class org.matsim.core.mobsim.qsim.messagequeueengine.MessageQueueEngine
2019-12-12 12:54:26,242  INFO MobsimListenerManager:49 calling addQueueSimulationListener
2019-12-12 12:54:26,242  INFO MobsimListenerManager:53   assigned class org.matsim.core.mobsim.framework.listeners.MobsimListener to interface org.matsim.core.mobsim.framework.listeners.MobsimListener
2019-12-12 12:54:26,242  INFO MobsimListenerManager:53   assigned class org.matsim.core.mobsim.framework.listeners.MobsimListener to interface org.matsim.contrib.freight.mobsim.WithinDayActivityReScheduling
2019-12-12 12:54:26,242  INFO MobsimListenerManager:53   assigned class org.matsim.core.mobsim.framework.listeners.MobsimListener to interface org.matsim.core.mobsim.framework.listeners.MobsimBeforeSimStepListener
2019-12-12 12:54:26,253  WARN QVehicleImpl:75 No VehicleCapacity (= maximum number of passengers) set in Vehicle. Using default value of 4.  This is only a problem if you need vehicles with different capacities, e.g. for minibuses.
2019-12-12 12:54:26,253  INFO QNetsimEngine:506 Assigned 15 nodes and 23 links to QSimEngineRunner #0
2019-12-12 12:54:26,253  INFO EventsManagerImpl:134  event # 1
2019-12-12 12:54:26,261  INFO EventsManagerImpl:134  event # 4
2019-12-12 12:54:26,261  INFO QNetsimEngine:346 SIMULATION (QNetsimEngine) AT 05:58:30 : #links=0 #nodes=1
2019-12-12 12:54:26,261  INFO QSim:521 SIMULATION (NEW QSim) AT 05:58:30 : #Veh=101 lost=0 simT=0.0s realT=0s; (s/r): 0.0
2019-12-12 12:54:26,261  INFO Gbl:58 used RAM: 36998648B = 36131kB = 35MB  free: 174813704B = 166MB  total: 211812352B = 202MB
2019-12-12 12:54:26,273  INFO EventsManagerImpl:134  event # 16
2019-12-12 12:54:26,273  INFO EventsManagerImpl:134  event # 64
2019-12-12 12:54:26,281  INFO QNetsimEngine:346 SIMULATION (QNetsimEngine) AT 06:00:00 : #links=2 #nodes=1
2019-12-12 12:54:26,281  INFO QSim:521 SIMULATION (NEW QSim) AT 06:00:00 : #Veh=101 lost=0 simT=90.0s realT=0s; (s/r): Infinity
2019-12-12 12:54:26,281  INFO Gbl:58 used RAM: 36998648B = 36131kB = 35MB  free: 174813704B = 166MB  total: 211812352B = 202MB
2019-12-12 12:54:26,283  INFO EventsManagerImpl:134  event # 256
2019-12-12 12:54:26,371  WARN DefaultTurnAcceptanceLogic:57 Cannot move vehicle freight_carrier1_veh_myVehicle_0 from link 2 to link 3
2019-12-12 12:54:26,393  INFO EventsManagerImpl:134  event # 1024
2019-12-12 12:54:26,695  INFO QNetsimEngine:346 SIMULATION (QNetsimEngine) AT 07:00:00 : #links=3 #nodes=0
2019-12-12 12:54:26,695  INFO QSim:521 SIMULATION (NEW QSim) AT 07:00:00 : #Veh=100 lost=1 simT=3690.0s realT=0s; (s/r): Infinity
2019-12-12 12:54:26,695  INFO Gbl:58 used RAM: 40999792B = 40038kB = 39MB  free: 170812560B = 162MB  total: 211812352B = 202MB
2019-12-12 12:54:26,976  INFO QNetsimEngine:346 SIMULATION (QNetsimEngine) AT 08:00:00 : #links=4 #nodes=0
2019-12-12 12:54:26,976  INFO QSim:521 SIMULATION (NEW QSim) AT 08:00:00 : #Veh=5 lost=1 simT=7290.0s realT=0s; (s/r): Infinity
2019-12-12 12:54:26,976  INFO Gbl:58 used RAM: 45799048B = 44725kB = 43MB  free: 166013304B = 158MB  total: 211812352B = 202MB
2019-12-12 12:54:27,188  INFO QNetsimEngine:346 SIMULATION (QNetsimEngine) AT 09:00:00 : #links=3 #nodes=0
2019-12-12 12:54:27,188  INFO QSim:521 SIMULATION (NEW QSim) AT 09:00:00 : #Veh=4 lost=1 simT=10890.0s realT=0s; (s/r): Infinity
2019-12-12 12:54:27,188  INFO Gbl:58 used RAM: 48694144B = 47552kB = 46MB  free: 163118208B = 155MB  total: 211812352B = 202MB
2019-12-12 12:54:27,387  INFO QNetsimEngine:346 SIMULATION (QNetsimEngine) AT 10:00:00 : #links=2 #nodes=0
2019-12-12 12:54:27,387  INFO QSim:521 SIMULATION (NEW QSim) AT 10:00:00 : #Veh=2 lost=1 simT=14490.0s realT=1s; (s/r): 14490.0
2019-12-12 12:54:27,387  INFO Gbl:58 used RAM: 51589232B = 50380kB = 49MB  free: 160223120B = 152MB  total: 211812352B = 202MB
2019-12-12 12:54:27,590  INFO QNetsimEngine:346 SIMULATION (QNetsimEngine) AT 11:00:00 : #links=3 #nodes=0
2019-12-12 12:54:27,590  INFO QSim:521 SIMULATION (NEW QSim) AT 11:00:00 : #Veh=1 lost=1 simT=18090.0s realT=1s; (s/r): 18090.0
2019-12-12 12:54:27,591  INFO Gbl:58 used RAM: 53493392B = 52239kB = 51MB  free: 158318960B = 150MB  total: 211812352B = 202MB
2019-12-12 12:54:27,744  INFO QNetsimEngine:346 SIMULATION (QNetsimEngine) AT 12:00:00 : #links=1 #nodes=0
2019-12-12 12:54:27,744  INFO QSim:521 SIMULATION (NEW QSim) AT 12:00:00 : #Veh=1 lost=1 simT=21690.0s realT=1s; (s/r): 21690.0
2019-12-12 12:54:27,744  INFO Gbl:58 used RAM: 56388496B = 55066kB = 53MB  free: 155423856B = 148MB  total: 211812352B = 202MB
2019-12-12 12:54:27,894  INFO QNetsimEngine:346 SIMULATION (QNetsimEngine) AT 13:00:00 : #links=2 #nodes=0
2019-12-12 12:54:27,894  INFO QSim:521 SIMULATION (NEW QSim) AT 13:00:00 : #Veh=1 lost=1 simT=25290.0s realT=1s; (s/r): 25290.0
2019-12-12 12:54:27,895  INFO Gbl:58 used RAM: 56388496B = 55066kB = 53MB  free: 155423856B = 148MB  total: 211812352B = 202MB
2019-12-12 12:54:27,960  INFO Gbl:191 Thread performance: Thread=class org.matsim.core.events.SimStepParallelEventsManagerImpl$ProcessEventsRunnable0  cpu-time=0.203125sec
2019-12-12 12:54:27,960  INFO AbstractController$9:220 ### ITERATION 0 fires after mobsim event
2019-12-12 12:54:27,960  INFO ControlerListenerManagerImpl:248 calling notifyAfterMobsim on org.matsim.analysis.LegTimesControlerListener
2019-12-12 12:54:27,960  INFO LegTimesControlerListener:50 [0] average trip (probably: leg) duration is: 1688 seconds = 00:28:08
2019-12-12 12:54:27,960  INFO ControlerListenerManagerImpl:248 calling notifyAfterMobsim on org.matsim.contrib.freight.controler.CarrierControlerListener
2019-12-12 12:54:27,960  INFO EventsManagerImpl:161 removing Event-Handler: org.matsim.contrib.freight.mobsim.CarrierAgentTracker
2019-12-12 12:54:27,960  INFO EventsManagerImpl:161 removing Event-Handler: org.matsim.contrib.freight.mobsim.CarrierAgentTracker
2019-12-12 12:54:27,960  INFO ControlerListenerManagerImpl:248 calling notifyAfterMobsim on org.matsim.core.scoring.EventsToActivities$1
2019-12-12 12:54:27,960  INFO ControlerListenerManagerImpl:251 [it.0] all ControlerAfterMobsimListeners called.
2019-12-12 12:54:27,960  INFO AbstractController$4:149 ### ITERATION 0 fires scoring event
2019-12-12 12:54:27,960  INFO ControlerListenerManagerImpl:183 calling notifyScoring on org.matsim.core.scoring.PlansScoringImpl
2019-12-12 12:54:27,960  INFO NewScoreAssignerImpl:57 it: 0 msaStart: null
2019-12-12 12:54:27,960  INFO ControlerListenerManagerImpl:190 calling notifyScoring on org.matsim.contrib.freight.controler.CarrierControlerListener
2019-12-12 12:54:27,960  INFO ControlerListenerManagerImpl:194 [it.0] all ControlerScoringListeners called.
2019-12-12 12:54:27,960  INFO AbstractController$5:157 ### ITERATION 0 fires iteration end event
2019-12-12 12:54:27,960  INFO ControlerListenerManagerImpl:160 calling notifyIterationEnds on org.matsim.core.controler.corelisteners.EventsHandlingImpl
2019-12-12 12:54:27,960  INFO EventsManagerImpl:161 removing Event-Handler: org.matsim.core.events.algorithms.EventWriterXML
2019-12-12 12:54:27,960  INFO EventsManagerImpl:161 removing Event-Handler: org.matsim.core.events.algorithms.EventWriterXML
2019-12-12 12:54:27,960  INFO ControlerListenerManagerImpl:160 calling notifyIterationEnds on org.matsim.core.scoring.PlansScoringImpl
2019-12-12 12:54:27,960  INFO ControlerListenerManagerImpl:167 calling notifyIterationEnds on org.matsim.counts.CountsControlerListener
2019-12-12 12:54:27,960  INFO ControlerListenerManagerImpl:167 calling notifyIterationEnds on org.matsim.analysis.ModeStatsControlerListener
2019-12-12 12:54:27,960  INFO ModeStatsControlerListener:155 -- mode share of mode car = 1.0
2019-12-12 12:54:27,960  INFO ModeStatsControlerListener:155 -- mode share of mode pt = 0.0
2019-12-12 12:54:27,960  INFO ModeStatsControlerListener:155 -- mode share of mode walk = 0.0
2019-12-12 12:54:27,960  INFO ControlerListenerManagerImpl:167 calling notifyIterationEnds on org.matsim.analysis.ScoreStatsControlerListener
2019-12-12 12:54:27,960  INFO ScoreStatsControlerListener:191 -- avg. score of the executed plan of each agent: 64.75686659291274
2019-12-12 12:54:27,960  INFO ScoreStatsControlerListener:192 -- avg. score of the worst plan of each agent: 64.75686659291274
2019-12-12 12:54:27,960  INFO ScoreStatsControlerListener:193 -- avg. of the avg. plan score per agent: 64.75686659291274
2019-12-12 12:54:27,960  INFO ScoreStatsControlerListener:194 -- avg. score of the best plan of each agent: 64.75686659291274
2019-12-12 12:54:27,960  INFO ControlerListenerManagerImpl:167 calling notifyIterationEnds on org.matsim.analysis.TravelDistanceStatsControlerListener
2019-12-12 12:54:27,960  INFO TravelDistanceStats:128 [TravelDistanceStats] using 2 thread(s).
2019-12-12 12:54:27,975  INFO TravelDistanceStats:141 [TravelDistanceStats] all threads finished.
2019-12-12 12:54:27,975  INFO TravelDistanceStats:161 -- average of the average leg distance per plan (executed plans only): 44850.0
2019-12-12 12:54:27,975  INFO TravelDistanceStats:162 (TravelDistanceStats takes an average over all legs where the simulation reports travelled distances. These are car legs, pt legs,
2019-12-12 12:54:27,975  INFO TravelDistanceStats:163 (and teleported legs whose route contains a distance.)
2019-12-12 12:54:27,975  INFO ControlerListenerManagerImpl:167 calling notifyIterationEnds on org.matsim.analysis.LegHistogramListener
2019-12-12 12:54:27,975  INFO LegHistogramListener:72 number of legs:	201	100%
2019-12-12 12:54:27,975  INFO LegHistogramListener:79 number of car legs:	201	100.0%
2019-12-12 12:54:28,862  INFO ControlerListenerManagerImpl:167 calling notifyIterationEnds on org.matsim.analysis.LinkStatsControlerListener
2019-12-12 12:54:28,862  INFO ControlerListenerManagerImpl:171 [it.0] all ControlerIterationEndsListeners called.
2019-12-12 12:54:29,062  INFO AbstractController:167 ### ITERATION 0 ENDS
2019-12-12 12:54:29,062  INFO AbstractController:168 ###################################################
2019-12-12 12:54:29,062  INFO MatsimRuntimeModifications:79 S H U T D O W N   ---   start shutdown.
2019-12-12 12:54:29,062  INFO ControlerListenerManagerImpl:121 calling notifyShutdown on org.matsim.core.controler.corelisteners.EventsHandlingImpl
2019-12-12 12:54:29,062  INFO ControlerListenerManagerImpl:121 calling notifyShutdown on org.matsim.core.controler.corelisteners.DumpDataAtEndImpl
2019-12-12 12:54:29,062  WARN ObjectAttributesConverter:75 No AttributeConverter found for class java.util.HashMap. Not all attribute values can be converted.
2019-12-12 12:54:29,072  INFO Counter:70 [PopulationWriter] dumped person # 1
2019-12-12 12:54:29,072  INFO Counter:70 [PopulationWriter] dumped person # 2
2019-12-12 12:54:29,072  INFO Counter:70 [PopulationWriter] dumped person # 4
2019-12-12 12:54:29,073  INFO Counter:70 [PopulationWriter] dumped person # 8
2019-12-12 12:54:29,073  INFO Counter:70 [PopulationWriter] dumped person # 16
2019-12-12 12:54:29,073  INFO Counter:70 [PopulationWriter] dumped person # 32
2019-12-12 12:54:29,073  INFO Counter:70 [PopulationWriter] dumped person # 64
2019-12-12 12:54:29,073  INFO PopulationWriter:144 Population written to: ./output/equil/output_plans.xml.gz
2019-12-12 12:54:29,073  INFO Counter:76 [PopulationWriter] dumped person # 100
2019-12-12 12:54:29,073  INFO NetworkWriter:69 Writing network to file: ./output/equil/output_network.xml.gz...
2019-12-12 12:54:29,073  INFO NetworkWriter:72 done.
2019-12-12 12:54:29,109  INFO Config:572 setting context to [file:/C:/Users/koetscha/Desktop/develop/matsim.berlin/matsim-berlin/]
2019-12-12 12:54:29,114  INFO PlansCalcRouteConfigGroup:326 Replacing mode routing params for mode=non_network_walk.
2019-12-12 12:54:29,115  INFO Config:572 setting context to [file:/C:/Users/koetscha/Desktop/develop/matsim.berlin/matsim-berlin/]
2019-12-12 12:54:29,121  INFO PlansCalcRouteConfigGroup:326 Replacing mode routing params for mode=non_network_walk.
2019-12-12 12:54:29,122  INFO Config:572 setting context to [file:/C:/Users/koetscha/Desktop/develop/matsim.berlin/matsim-berlin/]
2019-12-12 12:54:29,127  INFO PlansCalcRouteConfigGroup:326 Replacing mode routing params for mode=non_network_walk.
2019-12-12 12:54:29,127  INFO Config:572 setting context to [file:/C:/Users/koetscha/Desktop/develop/matsim.berlin/matsim-berlin/]
2019-12-12 12:54:29,131  INFO PlansCalcRouteConfigGroup:326 Replacing mode routing params for mode=non_network_walk.
2019-12-12 12:54:29,131  INFO Config:572 setting context to [file:/C:/Users/koetscha/Desktop/develop/matsim.berlin/matsim-berlin/]
2019-12-12 12:54:29,131  INFO PlansCalcRouteConfigGroup:326 Replacing mode routing params for mode=non_network_walk.
2019-12-12 12:54:29,131  INFO Config:572 setting context to [file:/C:/Users/koetscha/Desktop/develop/matsim.berlin/matsim-berlin/]
2019-12-12 12:54:29,147  INFO PlansCalcRouteConfigGroup:326 Replacing mode routing params for mode=non_network_walk.
2019-12-12 12:54:29,147  INFO Config:572 setting context to [file:/C:/Users/koetscha/Desktop/develop/matsim.berlin/matsim-berlin/]
2019-12-12 12:54:29,147  INFO PlansCalcRouteConfigGroup:326 Replacing mode routing params for mode=non_network_walk.
2019-12-12 12:54:29,147  INFO Config:572 setting context to [file:/C:/Users/koetscha/Desktop/develop/matsim.berlin/matsim-berlin/]
2019-12-12 12:54:29,163  INFO PlansCalcRouteConfigGroup:326 Replacing mode routing params for mode=non_network_walk.
2019-12-12 12:54:29,163  INFO Config:572 setting context to [file:/C:/Users/koetscha/Desktop/develop/matsim.berlin/matsim-berlin/]
2019-12-12 12:54:29,163  INFO PlansCalcRouteConfigGroup:326 Replacing mode routing params for mode=non_network_walk.
2019-12-12 12:54:29,163  INFO Config:572 setting context to [file:/C:/Users/koetscha/Desktop/develop/matsim.berlin/matsim-berlin/]
2019-12-12 12:54:29,163  INFO PlansCalcRouteConfigGroup:326 Replacing mode routing params for mode=non_network_walk.
2019-12-12 12:54:29,163  INFO Config:572 setting context to [file:/C:/Users/koetscha/Desktop/develop/matsim.berlin/matsim-berlin/]
2019-12-12 12:54:29,163  INFO PlansCalcRouteConfigGroup:326 Replacing mode routing params for mode=non_network_walk.
2019-12-12 12:54:29,163  INFO Config:572 setting context to [file:/C:/Users/koetscha/Desktop/develop/matsim.berlin/matsim-berlin/]
2019-12-12 12:54:29,163  INFO PlansCalcRouteConfigGroup:326 Replacing mode routing params for mode=non_network_walk.
2019-12-12 12:54:29,394  INFO Config:572 setting context to [file:/C:/Users/koetscha/Desktop/develop/matsim.berlin/matsim-berlin/]
2019-12-12 12:54:29,409  INFO PlansCalcRouteConfigGroup:326 Replacing mode routing params for mode=non_network_walk.
2019-12-12 12:54:29,409  INFO Config:572 setting context to [file:/C:/Users/koetscha/Desktop/develop/matsim.berlin/matsim-berlin/]
2019-12-12 12:54:29,409  INFO PlansCalcRouteConfigGroup:326 Replacing mode routing params for mode=non_network_walk.
2019-12-12 12:54:29,409  INFO Config:572 setting context to [file:/C:/Users/koetscha/Desktop/develop/matsim.berlin/matsim-berlin/]
2019-12-12 12:54:29,409  INFO PlansCalcRouteConfigGroup:326 Replacing mode routing params for mode=non_network_walk.
2019-12-12 12:54:29,409  INFO Config:572 setting context to [file:/C:/Users/koetscha/Desktop/develop/matsim.berlin/matsim-berlin/]
2019-12-12 12:54:29,409  INFO PlansCalcRouteConfigGroup:326 Replacing mode routing params for mode=non_network_walk.
2019-12-12 12:54:29,409  INFO Config:572 setting context to [file:/C:/Users/koetscha/Desktop/develop/matsim.berlin/matsim-berlin/]
2019-12-12 12:54:29,409  INFO PlansCalcRouteConfigGroup:326 Replacing mode routing params for mode=non_network_walk.
2019-12-12 12:54:29,425  INFO Config:572 setting context to [file:/C:/Users/koetscha/Desktop/develop/matsim.berlin/matsim-berlin/]
2019-12-12 12:54:29,425  INFO PlansCalcRouteConfigGroup:326 Replacing mode routing params for mode=non_network_walk.
2019-12-12 12:54:29,425  INFO Config:572 setting context to [file:/C:/Users/koetscha/Desktop/develop/matsim.berlin/matsim-berlin/]
2019-12-12 12:54:29,425  INFO PlansCalcRouteConfigGroup:326 Replacing mode routing params for mode=non_network_walk.
2019-12-12 12:54:29,425  INFO Config:572 setting context to [file:/C:/Users/koetscha/Desktop/develop/matsim.berlin/matsim-berlin/]
2019-12-12 12:54:29,432  INFO PlansCalcRouteConfigGroup:326 Replacing mode routing params for mode=non_network_walk.
2019-12-12 12:54:29,432  INFO Config:572 setting context to [file:/C:/Users/koetscha/Desktop/develop/matsim.berlin/matsim-berlin/]
2019-12-12 12:54:29,434  INFO PlansCalcRouteConfigGroup:326 Replacing mode routing params for mode=non_network_walk.
2019-12-12 12:54:29,434  INFO Config:572 setting context to [file:/C:/Users/koetscha/Desktop/develop/matsim.berlin/matsim-berlin/]
2019-12-12 12:54:29,434  INFO PlansCalcRouteConfigGroup:326 Replacing mode routing params for mode=non_network_walk.
2019-12-12 12:54:29,434  INFO Config:572 setting context to [file:/C:/Users/koetscha/Desktop/develop/matsim.berlin/matsim-berlin/]
2019-12-12 12:54:29,434  INFO PlansCalcRouteConfigGroup:326 Replacing mode routing params for mode=non_network_walk.
2019-12-12 12:54:29,434  INFO Config:572 setting context to [file:/C:/Users/koetscha/Desktop/develop/matsim.berlin/matsim-berlin/]
2019-12-12 12:54:29,434  INFO PlansCalcRouteConfigGroup:326 Replacing mode routing params for mode=non_network_walk.
2019-12-12 12:54:29,444  INFO VehicleWriterV1:52 about to write vehicles to: ./output/equil/output_vehicles.xml.gz
2019-12-12 12:54:29,444  INFO HouseholdsWriterV10:66 about to write  households to: ./output/equil/output_households.xml.gz
2019-12-12 12:54:29,444  INFO Counter:76 [HouseholdsWriter] wrote household # 0
2019-12-12 12:54:29,454  INFO LanesWriter:72 about to write lanes to: ./output/equil/output_lanes.xml.gz
2019-12-12 12:54:29,736  INFO ControlerListenerManagerImpl:126 calling notifyShutdown on org.matsim.analysis.ModeStatsControlerListener
2019-12-12 12:54:29,736  INFO ControlerListenerManagerImpl:126 calling notifyShutdown on org.matsim.analysis.ScoreStatsControlerListener
2019-12-12 12:54:29,736  INFO ControlerListenerManagerImpl:126 calling notifyShutdown on org.matsim.analysis.TravelDistanceStatsControlerListener
2019-12-12 12:54:29,736  INFO ControlerListenerManagerImpl:126 calling notifyShutdown on org.matsim.contrib.freight.controler.CarrierModule$1
2019-12-12 12:54:29,736  INFO CarrierPlanXmlWriterV2:55 write carrier plans
2019-12-12 12:54:29,746  INFO CarrierPlanXmlWriterV2:70 done
2019-12-12 12:54:29,746  INFO CarrierPlanXmlWriterV2:55 write carrier plans
2019-12-12 12:54:30,018  INFO CarrierPlanXmlWriterV2:70 done
2019-12-12 12:54:30,026  INFO CarrierVehicleTypeWriter:31 write vehicle-types
2019-12-12 12:54:30,026  INFO CarrierVehicleTypeWriter:37 done
2019-12-12 12:54:30,026  INFO CarrierVehicleTypeWriter:31 write vehicle-types
2019-12-12 12:54:30,028  INFO CarrierVehicleTypeWriter:37 done
2019-12-12 12:54:30,028  INFO ControlerListenerManagerImpl:129 all ControlerShutdownListeners called.
2019-12-12 12:54:30,028  INFO MatsimRuntimeModifications:102 S H U T D O W N   ---   shutdown completed.
2019-12-12 12:54:30,028  INFO OutputDirectoryLogging:146 closing the logfile, i.e. messages sent to the logger after this message are not written to the logfile.
